*SPEF "ieee 1481-1999"
*DESIGN "fsm_handshake"
*DATE "23:47:59 Tuesday April 21, 2026"
*VENDOR "The OpenROAD Project"
*PROGRAM "OpenROAD"
*VERSION "26Q2-209-g0d9d73ffba"
*DESIGN_FLOW "NAME_SCOPE LOCAL" "PIN_CAP NONE"
*DIVIDER /
*DELIMITER :
*BUS_DELIMITER []
*T_UNIT 1 NS
*C_UNIT 1 PF
*R_UNIT 1 OHM
*L_UNIT 1 HENRY

*NAME_MAP
*1 _00_
*2 _01_
*3 _02_
*4 _03_
*5 _04_
*6 _05_
*7 net4
*8 clk
*9 net1
*10 net2
*11 net3
*12 state_q\[0\]
*13 net5
*16 done
*17 rst_n
*18 start
*19 busy
*20 valid
*21 clknet_0_clk
*22 clknet_1_0__leaf_clk
*23 clknet_1_1__leaf_clk
*24 _06_
*25 _07_
*26 _08_
*27 _09_
*28 _10_
*29 _11_
*30 state_q\[0\]\$_DFF_PN1_
*31 state_q\[1\]\$_DFF_PN0_
*32 state_q\[2\]\$_DFF_PN0_
*33 TAP_TAPCELL_ROW_0_0
*34 TAP_TAPCELL_ROW_0_1
*35 TAP_TAPCELL_ROW_0_2
*36 TAP_TAPCELL_ROW_0_3
*37 TAP_TAPCELL_ROW_0_4
*38 TAP_TAPCELL_ROW_0_5
*39 TAP_TAPCELL_ROW_0_6
*40 TAP_TAPCELL_ROW_0_7
*41 TAP_TAPCELL_ROW_0_8
*42 TAP_TAPCELL_ROW_0_9
*43 TAP_TAPCELL_ROW_0_10
*44 TAP_TAPCELL_ROW_0_11
*45 TAP_TAPCELL_ROW_0_12
*46 TAP_TAPCELL_ROW_1_13
*47 TAP_TAPCELL_ROW_1_14
*48 TAP_TAPCELL_ROW_1_15
*49 TAP_TAPCELL_ROW_1_16
*50 TAP_TAPCELL_ROW_1_17
*51 TAP_TAPCELL_ROW_1_18
*52 TAP_TAPCELL_ROW_2_19
*53 TAP_TAPCELL_ROW_2_20
*54 TAP_TAPCELL_ROW_2_21
*55 TAP_TAPCELL_ROW_2_22
*56 TAP_TAPCELL_ROW_2_23
*57 TAP_TAPCELL_ROW_2_24
*58 TAP_TAPCELL_ROW_2_25
*59 TAP_TAPCELL_ROW_3_26
*60 TAP_TAPCELL_ROW_3_27
*61 TAP_TAPCELL_ROW_3_28
*62 TAP_TAPCELL_ROW_3_29
*63 TAP_TAPCELL_ROW_3_30
*64 TAP_TAPCELL_ROW_3_31
*65 TAP_TAPCELL_ROW_4_32
*66 TAP_TAPCELL_ROW_4_33
*67 TAP_TAPCELL_ROW_4_34
*68 TAP_TAPCELL_ROW_4_35
*69 TAP_TAPCELL_ROW_4_36
*70 TAP_TAPCELL_ROW_4_37
*71 TAP_TAPCELL_ROW_4_38
*72 TAP_TAPCELL_ROW_5_39
*73 TAP_TAPCELL_ROW_5_40
*74 TAP_TAPCELL_ROW_5_41
*75 TAP_TAPCELL_ROW_5_42
*76 TAP_TAPCELL_ROW_5_43
*77 TAP_TAPCELL_ROW_5_44
*78 TAP_TAPCELL_ROW_6_45
*79 TAP_TAPCELL_ROW_6_46
*80 TAP_TAPCELL_ROW_6_47
*81 TAP_TAPCELL_ROW_6_48
*82 TAP_TAPCELL_ROW_6_49
*83 TAP_TAPCELL_ROW_6_50
*84 TAP_TAPCELL_ROW_6_51
*85 TAP_TAPCELL_ROW_7_52
*86 TAP_TAPCELL_ROW_7_53
*87 TAP_TAPCELL_ROW_7_54
*88 TAP_TAPCELL_ROW_7_55
*89 TAP_TAPCELL_ROW_7_56
*90 TAP_TAPCELL_ROW_7_57
*91 TAP_TAPCELL_ROW_8_58
*92 TAP_TAPCELL_ROW_8_59
*93 TAP_TAPCELL_ROW_8_60
*94 TAP_TAPCELL_ROW_8_61
*95 TAP_TAPCELL_ROW_8_62
*96 TAP_TAPCELL_ROW_8_63
*97 TAP_TAPCELL_ROW_8_64
*98 TAP_TAPCELL_ROW_9_65
*99 TAP_TAPCELL_ROW_9_66
*100 TAP_TAPCELL_ROW_9_67
*101 TAP_TAPCELL_ROW_9_68
*102 TAP_TAPCELL_ROW_9_69
*103 TAP_TAPCELL_ROW_9_70
*104 TAP_TAPCELL_ROW_10_71
*105 TAP_TAPCELL_ROW_10_72
*106 TAP_TAPCELL_ROW_10_73
*107 TAP_TAPCELL_ROW_10_74
*108 TAP_TAPCELL_ROW_10_75
*109 TAP_TAPCELL_ROW_10_76
*110 TAP_TAPCELL_ROW_10_77
*111 TAP_TAPCELL_ROW_11_78
*112 TAP_TAPCELL_ROW_11_79
*113 TAP_TAPCELL_ROW_11_80
*114 TAP_TAPCELL_ROW_11_81
*115 TAP_TAPCELL_ROW_11_82
*116 TAP_TAPCELL_ROW_11_83
*117 TAP_TAPCELL_ROW_12_84
*118 TAP_TAPCELL_ROW_12_85
*119 TAP_TAPCELL_ROW_12_86
*120 TAP_TAPCELL_ROW_12_87
*121 TAP_TAPCELL_ROW_12_88
*122 TAP_TAPCELL_ROW_12_89
*123 TAP_TAPCELL_ROW_12_90
*124 TAP_TAPCELL_ROW_13_91
*125 TAP_TAPCELL_ROW_13_92
*126 TAP_TAPCELL_ROW_13_93
*127 TAP_TAPCELL_ROW_13_94
*128 TAP_TAPCELL_ROW_13_95
*129 TAP_TAPCELL_ROW_13_96
*130 TAP_TAPCELL_ROW_14_97
*131 TAP_TAPCELL_ROW_14_98
*132 TAP_TAPCELL_ROW_14_99
*133 TAP_TAPCELL_ROW_14_100
*134 TAP_TAPCELL_ROW_14_101
*135 TAP_TAPCELL_ROW_14_102
*136 TAP_TAPCELL_ROW_14_103
*137 TAP_TAPCELL_ROW_15_104
*138 TAP_TAPCELL_ROW_15_105
*139 TAP_TAPCELL_ROW_15_106
*140 TAP_TAPCELL_ROW_15_107
*141 TAP_TAPCELL_ROW_15_108
*142 TAP_TAPCELL_ROW_15_109
*143 TAP_TAPCELL_ROW_16_110
*144 TAP_TAPCELL_ROW_16_111
*145 TAP_TAPCELL_ROW_16_112
*146 TAP_TAPCELL_ROW_16_113
*147 TAP_TAPCELL_ROW_16_114
*148 TAP_TAPCELL_ROW_16_115
*149 TAP_TAPCELL_ROW_16_116
*150 TAP_TAPCELL_ROW_17_117
*151 TAP_TAPCELL_ROW_17_118
*152 TAP_TAPCELL_ROW_17_119
*153 TAP_TAPCELL_ROW_17_120
*154 TAP_TAPCELL_ROW_17_121
*155 TAP_TAPCELL_ROW_17_122
*156 TAP_TAPCELL_ROW_18_123
*157 TAP_TAPCELL_ROW_18_124
*158 TAP_TAPCELL_ROW_18_125
*159 TAP_TAPCELL_ROW_18_126
*160 TAP_TAPCELL_ROW_18_127
*161 TAP_TAPCELL_ROW_18_128
*162 TAP_TAPCELL_ROW_18_129
*163 TAP_TAPCELL_ROW_19_130
*164 TAP_TAPCELL_ROW_19_131
*165 TAP_TAPCELL_ROW_19_132
*166 TAP_TAPCELL_ROW_19_133
*167 TAP_TAPCELL_ROW_19_134
*168 TAP_TAPCELL_ROW_19_135
*169 TAP_TAPCELL_ROW_20_136
*170 TAP_TAPCELL_ROW_20_137
*171 TAP_TAPCELL_ROW_20_138
*172 TAP_TAPCELL_ROW_20_139
*173 TAP_TAPCELL_ROW_20_140
*174 TAP_TAPCELL_ROW_20_141
*175 TAP_TAPCELL_ROW_20_142
*176 TAP_TAPCELL_ROW_21_143
*177 TAP_TAPCELL_ROW_21_144
*178 TAP_TAPCELL_ROW_21_145
*179 TAP_TAPCELL_ROW_21_146
*180 TAP_TAPCELL_ROW_21_147
*181 TAP_TAPCELL_ROW_21_148
*182 TAP_TAPCELL_ROW_22_149
*183 TAP_TAPCELL_ROW_22_150
*184 TAP_TAPCELL_ROW_22_151
*185 TAP_TAPCELL_ROW_22_152
*186 TAP_TAPCELL_ROW_22_153
*187 TAP_TAPCELL_ROW_22_154
*188 TAP_TAPCELL_ROW_22_155
*189 TAP_TAPCELL_ROW_23_156
*190 TAP_TAPCELL_ROW_23_157
*191 TAP_TAPCELL_ROW_23_158
*192 TAP_TAPCELL_ROW_23_159
*193 TAP_TAPCELL_ROW_23_160
*194 TAP_TAPCELL_ROW_23_161
*195 TAP_TAPCELL_ROW_24_162
*196 TAP_TAPCELL_ROW_24_163
*197 TAP_TAPCELL_ROW_24_164
*198 TAP_TAPCELL_ROW_24_165
*199 TAP_TAPCELL_ROW_24_166
*200 TAP_TAPCELL_ROW_24_167
*201 TAP_TAPCELL_ROW_24_168
*202 TAP_TAPCELL_ROW_25_169
*203 TAP_TAPCELL_ROW_25_170
*204 TAP_TAPCELL_ROW_25_171
*205 TAP_TAPCELL_ROW_25_172
*206 TAP_TAPCELL_ROW_25_173
*207 TAP_TAPCELL_ROW_25_174
*208 TAP_TAPCELL_ROW_26_175
*209 TAP_TAPCELL_ROW_26_176
*210 TAP_TAPCELL_ROW_26_177
*211 TAP_TAPCELL_ROW_26_178
*212 TAP_TAPCELL_ROW_26_179
*213 TAP_TAPCELL_ROW_26_180
*214 TAP_TAPCELL_ROW_26_181
*215 TAP_TAPCELL_ROW_27_182
*216 TAP_TAPCELL_ROW_27_183
*217 TAP_TAPCELL_ROW_27_184
*218 TAP_TAPCELL_ROW_27_185
*219 TAP_TAPCELL_ROW_27_186
*220 TAP_TAPCELL_ROW_27_187
*221 TAP_TAPCELL_ROW_28_188
*222 TAP_TAPCELL_ROW_28_189
*223 TAP_TAPCELL_ROW_28_190
*224 TAP_TAPCELL_ROW_28_191
*225 TAP_TAPCELL_ROW_28_192
*226 TAP_TAPCELL_ROW_28_193
*227 TAP_TAPCELL_ROW_28_194
*228 TAP_TAPCELL_ROW_29_195
*229 TAP_TAPCELL_ROW_29_196
*230 TAP_TAPCELL_ROW_29_197
*231 TAP_TAPCELL_ROW_29_198
*232 TAP_TAPCELL_ROW_29_199
*233 TAP_TAPCELL_ROW_29_200
*234 TAP_TAPCELL_ROW_30_201
*235 TAP_TAPCELL_ROW_30_202
*236 TAP_TAPCELL_ROW_30_203
*237 TAP_TAPCELL_ROW_30_204
*238 TAP_TAPCELL_ROW_30_205
*239 TAP_TAPCELL_ROW_30_206
*240 TAP_TAPCELL_ROW_30_207
*241 TAP_TAPCELL_ROW_31_208
*242 TAP_TAPCELL_ROW_31_209
*243 TAP_TAPCELL_ROW_31_210
*244 TAP_TAPCELL_ROW_31_211
*245 TAP_TAPCELL_ROW_31_212
*246 TAP_TAPCELL_ROW_31_213
*247 TAP_TAPCELL_ROW_32_214
*248 TAP_TAPCELL_ROW_32_215
*249 TAP_TAPCELL_ROW_32_216
*250 TAP_TAPCELL_ROW_32_217
*251 TAP_TAPCELL_ROW_32_218
*252 TAP_TAPCELL_ROW_32_219
*253 TAP_TAPCELL_ROW_32_220
*254 TAP_TAPCELL_ROW_33_221
*255 TAP_TAPCELL_ROW_33_222
*256 TAP_TAPCELL_ROW_33_223
*257 TAP_TAPCELL_ROW_33_224
*258 TAP_TAPCELL_ROW_33_225
*259 TAP_TAPCELL_ROW_33_226
*260 TAP_TAPCELL_ROW_34_227
*261 TAP_TAPCELL_ROW_34_228
*262 TAP_TAPCELL_ROW_34_229
*263 TAP_TAPCELL_ROW_34_230
*264 TAP_TAPCELL_ROW_34_231
*265 TAP_TAPCELL_ROW_34_232
*266 TAP_TAPCELL_ROW_34_233
*267 TAP_TAPCELL_ROW_35_234
*268 TAP_TAPCELL_ROW_35_235
*269 TAP_TAPCELL_ROW_35_236
*270 TAP_TAPCELL_ROW_35_237
*271 TAP_TAPCELL_ROW_35_238
*272 TAP_TAPCELL_ROW_35_239
*273 TAP_TAPCELL_ROW_36_240
*274 TAP_TAPCELL_ROW_36_241
*275 TAP_TAPCELL_ROW_36_242
*276 TAP_TAPCELL_ROW_36_243
*277 TAP_TAPCELL_ROW_36_244
*278 TAP_TAPCELL_ROW_36_245
*279 TAP_TAPCELL_ROW_36_246
*280 TAP_TAPCELL_ROW_37_247
*281 TAP_TAPCELL_ROW_37_248
*282 TAP_TAPCELL_ROW_37_249
*283 TAP_TAPCELL_ROW_37_250
*284 TAP_TAPCELL_ROW_37_251
*285 TAP_TAPCELL_ROW_37_252
*286 TAP_TAPCELL_ROW_38_253
*287 TAP_TAPCELL_ROW_38_254
*288 TAP_TAPCELL_ROW_38_255
*289 TAP_TAPCELL_ROW_38_256
*290 TAP_TAPCELL_ROW_38_257
*291 TAP_TAPCELL_ROW_38_258
*292 TAP_TAPCELL_ROW_38_259
*293 TAP_TAPCELL_ROW_39_260
*294 TAP_TAPCELL_ROW_39_261
*295 TAP_TAPCELL_ROW_39_262
*296 TAP_TAPCELL_ROW_39_263
*297 TAP_TAPCELL_ROW_39_264
*298 TAP_TAPCELL_ROW_39_265
*299 TAP_TAPCELL_ROW_40_266
*300 TAP_TAPCELL_ROW_40_267
*301 TAP_TAPCELL_ROW_40_268
*302 TAP_TAPCELL_ROW_40_269
*303 TAP_TAPCELL_ROW_40_270
*304 TAP_TAPCELL_ROW_40_271
*305 TAP_TAPCELL_ROW_40_272
*306 TAP_TAPCELL_ROW_41_273
*307 TAP_TAPCELL_ROW_41_274
*308 TAP_TAPCELL_ROW_41_275
*309 TAP_TAPCELL_ROW_41_276
*310 TAP_TAPCELL_ROW_41_277
*311 TAP_TAPCELL_ROW_41_278
*312 TAP_TAPCELL_ROW_42_279
*313 TAP_TAPCELL_ROW_42_280
*314 TAP_TAPCELL_ROW_42_281
*315 TAP_TAPCELL_ROW_42_282
*316 TAP_TAPCELL_ROW_42_283
*317 TAP_TAPCELL_ROW_42_284
*318 TAP_TAPCELL_ROW_42_285
*319 TAP_TAPCELL_ROW_43_286
*320 TAP_TAPCELL_ROW_43_287
*321 TAP_TAPCELL_ROW_43_288
*322 TAP_TAPCELL_ROW_43_289
*323 TAP_TAPCELL_ROW_43_290
*324 TAP_TAPCELL_ROW_43_291
*325 TAP_TAPCELL_ROW_44_292
*326 TAP_TAPCELL_ROW_44_293
*327 TAP_TAPCELL_ROW_44_294
*328 TAP_TAPCELL_ROW_44_295
*329 TAP_TAPCELL_ROW_44_296
*330 TAP_TAPCELL_ROW_44_297
*331 TAP_TAPCELL_ROW_44_298
*332 TAP_TAPCELL_ROW_45_299
*333 TAP_TAPCELL_ROW_45_300
*334 TAP_TAPCELL_ROW_45_301
*335 TAP_TAPCELL_ROW_45_302
*336 TAP_TAPCELL_ROW_45_303
*337 TAP_TAPCELL_ROW_45_304
*338 TAP_TAPCELL_ROW_46_305
*339 TAP_TAPCELL_ROW_46_306
*340 TAP_TAPCELL_ROW_46_307
*341 TAP_TAPCELL_ROW_46_308
*342 TAP_TAPCELL_ROW_46_309
*343 TAP_TAPCELL_ROW_46_310
*344 TAP_TAPCELL_ROW_46_311
*345 TAP_TAPCELL_ROW_47_312
*346 TAP_TAPCELL_ROW_47_313
*347 TAP_TAPCELL_ROW_47_314
*348 TAP_TAPCELL_ROW_47_315
*349 TAP_TAPCELL_ROW_47_316
*350 TAP_TAPCELL_ROW_47_317
*351 TAP_TAPCELL_ROW_48_318
*352 TAP_TAPCELL_ROW_48_319
*353 TAP_TAPCELL_ROW_48_320
*354 TAP_TAPCELL_ROW_48_321
*355 TAP_TAPCELL_ROW_48_322
*356 TAP_TAPCELL_ROW_48_323
*357 TAP_TAPCELL_ROW_48_324
*358 TAP_TAPCELL_ROW_49_325
*359 TAP_TAPCELL_ROW_49_326
*360 TAP_TAPCELL_ROW_49_327
*361 TAP_TAPCELL_ROW_49_328
*362 TAP_TAPCELL_ROW_49_329
*363 TAP_TAPCELL_ROW_49_330
*364 TAP_TAPCELL_ROW_50_331
*365 TAP_TAPCELL_ROW_50_332
*366 TAP_TAPCELL_ROW_50_333
*367 TAP_TAPCELL_ROW_50_334
*368 TAP_TAPCELL_ROW_50_335
*369 TAP_TAPCELL_ROW_50_336
*370 TAP_TAPCELL_ROW_50_337
*371 TAP_TAPCELL_ROW_51_338
*372 TAP_TAPCELL_ROW_51_339
*373 TAP_TAPCELL_ROW_51_340
*374 TAP_TAPCELL_ROW_51_341
*375 TAP_TAPCELL_ROW_51_342
*376 TAP_TAPCELL_ROW_51_343
*377 TAP_TAPCELL_ROW_52_344
*378 TAP_TAPCELL_ROW_52_345
*379 TAP_TAPCELL_ROW_52_346
*380 TAP_TAPCELL_ROW_52_347
*381 TAP_TAPCELL_ROW_52_348
*382 TAP_TAPCELL_ROW_52_349
*383 TAP_TAPCELL_ROW_52_350
*384 TAP_TAPCELL_ROW_53_351
*385 TAP_TAPCELL_ROW_53_352
*386 TAP_TAPCELL_ROW_53_353
*387 TAP_TAPCELL_ROW_53_354
*388 TAP_TAPCELL_ROW_53_355
*389 TAP_TAPCELL_ROW_53_356
*390 TAP_TAPCELL_ROW_54_357
*391 TAP_TAPCELL_ROW_54_358
*392 TAP_TAPCELL_ROW_54_359
*393 TAP_TAPCELL_ROW_54_360
*394 TAP_TAPCELL_ROW_54_361
*395 TAP_TAPCELL_ROW_54_362
*396 TAP_TAPCELL_ROW_54_363
*397 TAP_TAPCELL_ROW_55_364
*398 TAP_TAPCELL_ROW_55_365
*399 TAP_TAPCELL_ROW_55_366
*400 TAP_TAPCELL_ROW_55_367
*401 TAP_TAPCELL_ROW_55_368
*402 TAP_TAPCELL_ROW_55_369
*403 TAP_TAPCELL_ROW_56_370
*404 TAP_TAPCELL_ROW_56_371
*405 TAP_TAPCELL_ROW_56_372
*406 TAP_TAPCELL_ROW_56_373
*407 TAP_TAPCELL_ROW_56_374
*408 TAP_TAPCELL_ROW_56_375
*409 TAP_TAPCELL_ROW_56_376
*410 TAP_TAPCELL_ROW_57_377
*411 TAP_TAPCELL_ROW_57_378
*412 TAP_TAPCELL_ROW_57_379
*413 TAP_TAPCELL_ROW_57_380
*414 TAP_TAPCELL_ROW_57_381
*415 TAP_TAPCELL_ROW_57_382
*416 TAP_TAPCELL_ROW_58_383
*417 TAP_TAPCELL_ROW_58_384
*418 TAP_TAPCELL_ROW_58_385
*419 TAP_TAPCELL_ROW_58_386
*420 TAP_TAPCELL_ROW_58_387
*421 TAP_TAPCELL_ROW_58_388
*422 TAP_TAPCELL_ROW_58_389
*423 TAP_TAPCELL_ROW_59_390
*424 TAP_TAPCELL_ROW_59_391
*425 TAP_TAPCELL_ROW_59_392
*426 TAP_TAPCELL_ROW_59_393
*427 TAP_TAPCELL_ROW_59_394
*428 TAP_TAPCELL_ROW_59_395
*429 TAP_TAPCELL_ROW_60_396
*430 TAP_TAPCELL_ROW_60_397
*431 TAP_TAPCELL_ROW_60_398
*432 TAP_TAPCELL_ROW_60_399
*433 TAP_TAPCELL_ROW_60_400
*434 TAP_TAPCELL_ROW_60_401
*435 TAP_TAPCELL_ROW_60_402
*436 TAP_TAPCELL_ROW_61_403
*437 TAP_TAPCELL_ROW_61_404
*438 TAP_TAPCELL_ROW_61_405
*439 TAP_TAPCELL_ROW_61_406
*440 TAP_TAPCELL_ROW_61_407
*441 TAP_TAPCELL_ROW_61_408
*442 TAP_TAPCELL_ROW_62_409
*443 TAP_TAPCELL_ROW_62_410
*444 TAP_TAPCELL_ROW_62_411
*445 TAP_TAPCELL_ROW_62_412
*446 TAP_TAPCELL_ROW_62_413
*447 TAP_TAPCELL_ROW_62_414
*448 TAP_TAPCELL_ROW_62_415
*449 TAP_TAPCELL_ROW_63_416
*450 TAP_TAPCELL_ROW_63_417
*451 TAP_TAPCELL_ROW_63_418
*452 TAP_TAPCELL_ROW_63_419
*453 TAP_TAPCELL_ROW_63_420
*454 TAP_TAPCELL_ROW_63_421
*455 TAP_TAPCELL_ROW_64_422
*456 TAP_TAPCELL_ROW_64_423
*457 TAP_TAPCELL_ROW_64_424
*458 TAP_TAPCELL_ROW_64_425
*459 TAP_TAPCELL_ROW_64_426
*460 TAP_TAPCELL_ROW_64_427
*461 TAP_TAPCELL_ROW_64_428
*462 TAP_TAPCELL_ROW_64_429
*463 TAP_TAPCELL_ROW_64_430
*464 TAP_TAPCELL_ROW_64_431
*465 TAP_TAPCELL_ROW_64_432
*466 TAP_TAPCELL_ROW_64_433
*467 TAP_TAPCELL_ROW_64_434
*468 input1
*469 input2
*470 input3
*471 output4
*472 output5
*473 clkbuf_0_clk
*474 clkbuf_1_0__f_clk
*475 clkbuf_1_1__f_clk
*476 clkload0
*477 FILLER_0_0
*478 FILLER_0_8
*479 FILLER_0_16
*480 FILLER_0_24
*481 FILLER_0_28
*482 FILLER_0_31
*483 FILLER_0_39
*484 FILLER_0_47
*485 FILLER_0_55
*486 FILLER_0_59
*487 FILLER_0_61
*488 FILLER_0_69
*489 FILLER_0_77
*490 FILLER_0_85
*491 FILLER_0_89
*492 FILLER_0_91
*493 FILLER_0_99
*494 FILLER_0_107
*495 FILLER_0_115
*496 FILLER_0_119
*497 FILLER_0_121
*498 FILLER_0_129
*499 FILLER_0_137
*500 FILLER_0_145
*501 FILLER_0_149
*502 FILLER_0_151
*503 FILLER_0_159
*504 FILLER_0_167
*505 FILLER_0_175
*506 FILLER_0_179
*507 FILLER_0_181
*508 FILLER_0_189
*509 FILLER_0_197
*510 FILLER_0_205
*511 FILLER_0_209
*512 FILLER_0_211
*513 FILLER_0_219
*514 FILLER_0_227
*515 FILLER_0_235
*516 FILLER_0_239
*517 FILLER_0_241
*518 FILLER_0_249
*519 FILLER_0_257
*520 FILLER_0_265
*521 FILLER_0_269
*522 FILLER_0_271
*523 FILLER_0_279
*524 FILLER_0_287
*525 FILLER_0_295
*526 FILLER_0_299
*527 FILLER_0_301
*528 FILLER_0_309
*529 FILLER_0_317
*530 FILLER_0_325
*531 FILLER_0_329
*532 FILLER_0_331
*533 FILLER_0_339
*534 FILLER_0_347
*535 FILLER_0_355
*536 FILLER_0_359
*537 FILLER_0_361
*538 FILLER_0_369
*539 FILLER_0_377
*540 FILLER_0_385
*541 FILLER_0_389
*542 FILLER_1_0
*543 FILLER_1_8
*544 FILLER_1_16
*545 FILLER_1_24
*546 FILLER_1_32
*547 FILLER_1_40
*548 FILLER_1_48
*549 FILLER_1_56
*550 FILLER_1_61
*551 FILLER_1_69
*552 FILLER_1_77
*553 FILLER_1_85
*554 FILLER_1_93
*555 FILLER_1_101
*556 FILLER_1_109
*557 FILLER_1_117
*558 FILLER_1_119
*559 FILLER_1_121
*560 FILLER_1_129
*561 FILLER_1_137
*562 FILLER_1_145
*563 FILLER_1_153
*564 FILLER_1_161
*565 FILLER_1_169
*566 FILLER_1_177
*567 FILLER_1_179
*568 FILLER_1_181
*569 FILLER_1_189
*570 FILLER_1_197
*571 FILLER_1_205
*572 FILLER_1_213
*573 FILLER_1_221
*574 FILLER_1_229
*575 FILLER_1_237
*576 FILLER_1_239
*577 FILLER_1_241
*578 FILLER_1_249
*579 FILLER_1_257
*580 FILLER_1_265
*581 FILLER_1_273
*582 FILLER_1_281
*583 FILLER_1_289
*584 FILLER_1_297
*585 FILLER_1_299
*586 FILLER_1_301
*587 FILLER_1_309
*588 FILLER_1_317
*589 FILLER_1_325
*590 FILLER_1_333
*591 FILLER_1_341
*592 FILLER_1_349
*593 FILLER_1_357
*594 FILLER_1_359
*595 FILLER_1_361
*596 FILLER_1_369
*597 FILLER_1_377
*598 FILLER_1_385
*599 FILLER_1_389
*600 FILLER_2_0
*601 FILLER_2_8
*602 FILLER_2_16
*603 FILLER_2_24
*604 FILLER_2_28
*605 FILLER_2_31
*606 FILLER_2_39
*607 FILLER_2_47
*608 FILLER_2_55
*609 FILLER_2_63
*610 FILLER_2_71
*611 FILLER_2_79
*612 FILLER_2_87
*613 FILLER_2_89
*614 FILLER_2_91
*615 FILLER_2_99
*616 FILLER_2_107
*617 FILLER_2_115
*618 FILLER_2_123
*619 FILLER_2_131
*620 FILLER_2_139
*621 FILLER_2_147
*622 FILLER_2_149
*623 FILLER_2_151
*624 FILLER_2_159
*625 FILLER_2_167
*626 FILLER_2_175
*627 FILLER_2_183
*628 FILLER_2_191
*629 FILLER_2_199
*630 FILLER_2_207
*631 FILLER_2_209
*632 FILLER_2_211
*633 FILLER_2_219
*634 FILLER_2_227
*635 FILLER_2_235
*636 FILLER_2_243
*637 FILLER_2_251
*638 FILLER_2_259
*639 FILLER_2_267
*640 FILLER_2_269
*641 FILLER_2_271
*642 FILLER_2_279
*643 FILLER_2_287
*644 FILLER_2_295
*645 FILLER_2_303
*646 FILLER_2_311
*647 FILLER_2_319
*648 FILLER_2_327
*649 FILLER_2_329
*650 FILLER_2_331
*651 FILLER_2_339
*652 FILLER_2_347
*653 FILLER_2_355
*654 FILLER_2_363
*655 FILLER_2_371
*656 FILLER_2_379
*657 FILLER_2_387
*658 FILLER_2_389
*659 FILLER_3_0
*660 FILLER_3_8
*661 FILLER_3_16
*662 FILLER_3_24
*663 FILLER_3_32
*664 FILLER_3_40
*665 FILLER_3_48
*666 FILLER_3_56
*667 FILLER_3_61
*668 FILLER_3_69
*669 FILLER_3_77
*670 FILLER_3_85
*671 FILLER_3_93
*672 FILLER_3_101
*673 FILLER_3_109
*674 FILLER_3_117
*675 FILLER_3_119
*676 FILLER_3_121
*677 FILLER_3_129
*678 FILLER_3_137
*679 FILLER_3_145
*680 FILLER_3_153
*681 FILLER_3_161
*682 FILLER_3_169
*683 FILLER_3_177
*684 FILLER_3_179
*685 FILLER_3_181
*686 FILLER_3_189
*687 FILLER_3_197
*688 FILLER_3_205
*689 FILLER_3_213
*690 FILLER_3_221
*691 FILLER_3_229
*692 FILLER_3_237
*693 FILLER_3_239
*694 FILLER_3_241
*695 FILLER_3_249
*696 FILLER_3_257
*697 FILLER_3_265
*698 FILLER_3_273
*699 FILLER_3_281
*700 FILLER_3_289
*701 FILLER_3_297
*702 FILLER_3_299
*703 FILLER_3_301
*704 FILLER_3_309
*705 FILLER_3_317
*706 FILLER_3_325
*707 FILLER_3_333
*708 FILLER_3_341
*709 FILLER_3_349
*710 FILLER_3_357
*711 FILLER_3_359
*712 FILLER_3_361
*713 FILLER_3_369
*714 FILLER_3_377
*715 FILLER_3_385
*716 FILLER_3_389
*717 FILLER_4_0
*718 FILLER_4_8
*719 FILLER_4_16
*720 FILLER_4_24
*721 FILLER_4_28
*722 FILLER_4_31
*723 FILLER_4_39
*724 FILLER_4_47
*725 FILLER_4_55
*726 FILLER_4_63
*727 FILLER_4_71
*728 FILLER_4_79
*729 FILLER_4_87
*730 FILLER_4_89
*731 FILLER_4_91
*732 FILLER_4_99
*733 FILLER_4_107
*734 FILLER_4_115
*735 FILLER_4_123
*736 FILLER_4_131
*737 FILLER_4_139
*738 FILLER_4_147
*739 FILLER_4_149
*740 FILLER_4_151
*741 FILLER_4_159
*742 FILLER_4_167
*743 FILLER_4_175
*744 FILLER_4_183
*745 FILLER_4_191
*746 FILLER_4_199
*747 FILLER_4_207
*748 FILLER_4_209
*749 FILLER_4_211
*750 FILLER_4_219
*751 FILLER_4_227
*752 FILLER_4_235
*753 FILLER_4_243
*754 FILLER_4_251
*755 FILLER_4_259
*756 FILLER_4_267
*757 FILLER_4_269
*758 FILLER_4_271
*759 FILLER_4_279
*760 FILLER_4_287
*761 FILLER_4_295
*762 FILLER_4_303
*763 FILLER_4_311
*764 FILLER_4_319
*765 FILLER_4_327
*766 FILLER_4_329
*767 FILLER_4_331
*768 FILLER_4_339
*769 FILLER_4_347
*770 FILLER_4_355
*771 FILLER_4_363
*772 FILLER_4_371
*773 FILLER_4_379
*774 FILLER_4_387
*775 FILLER_4_389
*776 FILLER_5_0
*777 FILLER_5_8
*778 FILLER_5_16
*779 FILLER_5_24
*780 FILLER_5_32
*781 FILLER_5_40
*782 FILLER_5_48
*783 FILLER_5_56
*784 FILLER_5_61
*785 FILLER_5_69
*786 FILLER_5_77
*787 FILLER_5_85
*788 FILLER_5_93
*789 FILLER_5_101
*790 FILLER_5_109
*791 FILLER_5_117
*792 FILLER_5_119
*793 FILLER_5_121
*794 FILLER_5_129
*795 FILLER_5_137
*796 FILLER_5_145
*797 FILLER_5_153
*798 FILLER_5_161
*799 FILLER_5_169
*800 FILLER_5_177
*801 FILLER_5_179
*802 FILLER_5_181
*803 FILLER_5_189
*804 FILLER_5_197
*805 FILLER_5_205
*806 FILLER_5_213
*807 FILLER_5_221
*808 FILLER_5_229
*809 FILLER_5_237
*810 FILLER_5_239
*811 FILLER_5_241
*812 FILLER_5_249
*813 FILLER_5_257
*814 FILLER_5_265
*815 FILLER_5_273
*816 FILLER_5_281
*817 FILLER_5_289
*818 FILLER_5_297
*819 FILLER_5_299
*820 FILLER_5_301
*821 FILLER_5_309
*822 FILLER_5_317
*823 FILLER_5_325
*824 FILLER_5_333
*825 FILLER_5_341
*826 FILLER_5_349
*827 FILLER_5_357
*828 FILLER_5_359
*829 FILLER_5_361
*830 FILLER_5_369
*831 FILLER_5_377
*832 FILLER_5_385
*833 FILLER_5_389
*834 FILLER_6_0
*835 FILLER_6_8
*836 FILLER_6_16
*837 FILLER_6_24
*838 FILLER_6_28
*839 FILLER_6_31
*840 FILLER_6_39
*841 FILLER_6_47
*842 FILLER_6_55
*843 FILLER_6_63
*844 FILLER_6_71
*845 FILLER_6_79
*846 FILLER_6_87
*847 FILLER_6_89
*848 FILLER_6_91
*849 FILLER_6_99
*850 FILLER_6_107
*851 FILLER_6_115
*852 FILLER_6_123
*853 FILLER_6_131
*854 FILLER_6_139
*855 FILLER_6_147
*856 FILLER_6_149
*857 FILLER_6_151
*858 FILLER_6_159
*859 FILLER_6_167
*860 FILLER_6_175
*861 FILLER_6_183
*862 FILLER_6_191
*863 FILLER_6_199
*864 FILLER_6_207
*865 FILLER_6_209
*866 FILLER_6_211
*867 FILLER_6_219
*868 FILLER_6_227
*869 FILLER_6_235
*870 FILLER_6_243
*871 FILLER_6_251
*872 FILLER_6_259
*873 FILLER_6_267
*874 FILLER_6_269
*875 FILLER_6_271
*876 FILLER_6_279
*877 FILLER_6_287
*878 FILLER_6_295
*879 FILLER_6_303
*880 FILLER_6_311
*881 FILLER_6_319
*882 FILLER_6_327
*883 FILLER_6_329
*884 FILLER_6_331
*885 FILLER_6_339
*886 FILLER_6_347
*887 FILLER_6_355
*888 FILLER_6_363
*889 FILLER_6_371
*890 FILLER_6_379
*891 FILLER_6_387
*892 FILLER_6_389
*893 FILLER_7_0
*894 FILLER_7_8
*895 FILLER_7_16
*896 FILLER_7_24
*897 FILLER_7_32
*898 FILLER_7_40
*899 FILLER_7_48
*900 FILLER_7_56
*901 FILLER_7_61
*902 FILLER_7_69
*903 FILLER_7_77
*904 FILLER_7_85
*905 FILLER_7_93
*906 FILLER_7_101
*907 FILLER_7_109
*908 FILLER_7_117
*909 FILLER_7_119
*910 FILLER_7_121
*911 FILLER_7_129
*912 FILLER_7_137
*913 FILLER_7_145
*914 FILLER_7_153
*915 FILLER_7_161
*916 FILLER_7_169
*917 FILLER_7_177
*918 FILLER_7_179
*919 FILLER_7_181
*920 FILLER_7_189
*921 FILLER_7_197
*922 FILLER_7_205
*923 FILLER_7_213
*924 FILLER_7_221
*925 FILLER_7_229
*926 FILLER_7_237
*927 FILLER_7_239
*928 FILLER_7_241
*929 FILLER_7_249
*930 FILLER_7_257
*931 FILLER_7_265
*932 FILLER_7_273
*933 FILLER_7_281
*934 FILLER_7_289
*935 FILLER_7_297
*936 FILLER_7_299
*937 FILLER_7_301
*938 FILLER_7_309
*939 FILLER_7_317
*940 FILLER_7_325
*941 FILLER_7_333
*942 FILLER_7_341
*943 FILLER_7_349
*944 FILLER_7_357
*945 FILLER_7_359
*946 FILLER_7_361
*947 FILLER_7_369
*948 FILLER_7_377
*949 FILLER_7_385
*950 FILLER_7_389
*951 FILLER_8_0
*952 FILLER_8_8
*953 FILLER_8_16
*954 FILLER_8_24
*955 FILLER_8_28
*956 FILLER_8_31
*957 FILLER_8_39
*958 FILLER_8_47
*959 FILLER_8_55
*960 FILLER_8_63
*961 FILLER_8_71
*962 FILLER_8_79
*963 FILLER_8_87
*964 FILLER_8_89
*965 FILLER_8_91
*966 FILLER_8_99
*967 FILLER_8_107
*968 FILLER_8_115
*969 FILLER_8_123
*970 FILLER_8_131
*971 FILLER_8_139
*972 FILLER_8_147
*973 FILLER_8_149
*974 FILLER_8_151
*975 FILLER_8_159
*976 FILLER_8_167
*977 FILLER_8_175
*978 FILLER_8_183
*979 FILLER_8_191
*980 FILLER_8_199
*981 FILLER_8_207
*982 FILLER_8_209
*983 FILLER_8_211
*984 FILLER_8_219
*985 FILLER_8_227
*986 FILLER_8_235
*987 FILLER_8_243
*988 FILLER_8_251
*989 FILLER_8_259
*990 FILLER_8_267
*991 FILLER_8_269
*992 FILLER_8_271
*993 FILLER_8_279
*994 FILLER_8_287
*995 FILLER_8_295
*996 FILLER_8_303
*997 FILLER_8_311
*998 FILLER_8_319
*999 FILLER_8_327
*1000 FILLER_8_329
*1001 FILLER_8_331
*1002 FILLER_8_339
*1003 FILLER_8_347
*1004 FILLER_8_355
*1005 FILLER_8_363
*1006 FILLER_8_371
*1007 FILLER_8_379
*1008 FILLER_8_387
*1009 FILLER_8_389
*1010 FILLER_9_0
*1011 FILLER_9_8
*1012 FILLER_9_16
*1013 FILLER_9_24
*1014 FILLER_9_32
*1015 FILLER_9_40
*1016 FILLER_9_48
*1017 FILLER_9_56
*1018 FILLER_9_61
*1019 FILLER_9_69
*1020 FILLER_9_77
*1021 FILLER_9_85
*1022 FILLER_9_93
*1023 FILLER_9_101
*1024 FILLER_9_109
*1025 FILLER_9_117
*1026 FILLER_9_119
*1027 FILLER_9_121
*1028 FILLER_9_129
*1029 FILLER_9_137
*1030 FILLER_9_145
*1031 FILLER_9_153
*1032 FILLER_9_161
*1033 FILLER_9_169
*1034 FILLER_9_177
*1035 FILLER_9_179
*1036 FILLER_9_181
*1037 FILLER_9_189
*1038 FILLER_9_197
*1039 FILLER_9_205
*1040 FILLER_9_213
*1041 FILLER_9_221
*1042 FILLER_9_229
*1043 FILLER_9_237
*1044 FILLER_9_239
*1045 FILLER_9_241
*1046 FILLER_9_249
*1047 FILLER_9_257
*1048 FILLER_9_265
*1049 FILLER_9_273
*1050 FILLER_9_281
*1051 FILLER_9_289
*1052 FILLER_9_297
*1053 FILLER_9_299
*1054 FILLER_9_301
*1055 FILLER_9_309
*1056 FILLER_9_317
*1057 FILLER_9_325
*1058 FILLER_9_333
*1059 FILLER_9_341
*1060 FILLER_9_349
*1061 FILLER_9_357
*1062 FILLER_9_359
*1063 FILLER_9_361
*1064 FILLER_9_369
*1065 FILLER_9_377
*1066 FILLER_9_385
*1067 FILLER_9_389
*1068 FILLER_10_0
*1069 FILLER_10_8
*1070 FILLER_10_16
*1071 FILLER_10_24
*1072 FILLER_10_28
*1073 FILLER_10_31
*1074 FILLER_10_39
*1075 FILLER_10_47
*1076 FILLER_10_55
*1077 FILLER_10_63
*1078 FILLER_10_71
*1079 FILLER_10_79
*1080 FILLER_10_87
*1081 FILLER_10_89
*1082 FILLER_10_91
*1083 FILLER_10_99
*1084 FILLER_10_107
*1085 FILLER_10_115
*1086 FILLER_10_123
*1087 FILLER_10_131
*1088 FILLER_10_139
*1089 FILLER_10_147
*1090 FILLER_10_149
*1091 FILLER_10_151
*1092 FILLER_10_159
*1093 FILLER_10_167
*1094 FILLER_10_175
*1095 FILLER_10_183
*1096 FILLER_10_191
*1097 FILLER_10_199
*1098 FILLER_10_207
*1099 FILLER_10_209
*1100 FILLER_10_211
*1101 FILLER_10_219
*1102 FILLER_10_227
*1103 FILLER_10_235
*1104 FILLER_10_243
*1105 FILLER_10_251
*1106 FILLER_10_259
*1107 FILLER_10_267
*1108 FILLER_10_269
*1109 FILLER_10_271
*1110 FILLER_10_279
*1111 FILLER_10_287
*1112 FILLER_10_295
*1113 FILLER_10_303
*1114 FILLER_10_311
*1115 FILLER_10_319
*1116 FILLER_10_327
*1117 FILLER_10_329
*1118 FILLER_10_331
*1119 FILLER_10_339
*1120 FILLER_10_347
*1121 FILLER_10_355
*1122 FILLER_10_363
*1123 FILLER_10_371
*1124 FILLER_10_379
*1125 FILLER_10_387
*1126 FILLER_10_389
*1127 FILLER_11_0
*1128 FILLER_11_8
*1129 FILLER_11_16
*1130 FILLER_11_24
*1131 FILLER_11_32
*1132 FILLER_11_40
*1133 FILLER_11_48
*1134 FILLER_11_56
*1135 FILLER_11_61
*1136 FILLER_11_69
*1137 FILLER_11_77
*1138 FILLER_11_85
*1139 FILLER_11_93
*1140 FILLER_11_101
*1141 FILLER_11_109
*1142 FILLER_11_117
*1143 FILLER_11_119
*1144 FILLER_11_121
*1145 FILLER_11_129
*1146 FILLER_11_137
*1147 FILLER_11_145
*1148 FILLER_11_153
*1149 FILLER_11_161
*1150 FILLER_11_169
*1151 FILLER_11_177
*1152 FILLER_11_179
*1153 FILLER_11_181
*1154 FILLER_11_189
*1155 FILLER_11_197
*1156 FILLER_11_205
*1157 FILLER_11_213
*1158 FILLER_11_221
*1159 FILLER_11_229
*1160 FILLER_11_237
*1161 FILLER_11_239
*1162 FILLER_11_241
*1163 FILLER_11_249
*1164 FILLER_11_257
*1165 FILLER_11_265
*1166 FILLER_11_273
*1167 FILLER_11_281
*1168 FILLER_11_289
*1169 FILLER_11_297
*1170 FILLER_11_299
*1171 FILLER_11_301
*1172 FILLER_11_309
*1173 FILLER_11_317
*1174 FILLER_11_325
*1175 FILLER_11_333
*1176 FILLER_11_341
*1177 FILLER_11_349
*1178 FILLER_11_357
*1179 FILLER_11_359
*1180 FILLER_11_361
*1181 FILLER_11_369
*1182 FILLER_11_377
*1183 FILLER_11_385
*1184 FILLER_11_389
*1185 FILLER_12_0
*1186 FILLER_12_8
*1187 FILLER_12_16
*1188 FILLER_12_24
*1189 FILLER_12_28
*1190 FILLER_12_31
*1191 FILLER_12_39
*1192 FILLER_12_47
*1193 FILLER_12_55
*1194 FILLER_12_63
*1195 FILLER_12_71
*1196 FILLER_12_79
*1197 FILLER_12_87
*1198 FILLER_12_89
*1199 FILLER_12_91
*1200 FILLER_12_99
*1201 FILLER_12_107
*1202 FILLER_12_115
*1203 FILLER_12_123
*1204 FILLER_12_131
*1205 FILLER_12_139
*1206 FILLER_12_147
*1207 FILLER_12_149
*1208 FILLER_12_151
*1209 FILLER_12_159
*1210 FILLER_12_167
*1211 FILLER_12_175
*1212 FILLER_12_183
*1213 FILLER_12_191
*1214 FILLER_12_199
*1215 FILLER_12_207
*1216 FILLER_12_209
*1217 FILLER_12_211
*1218 FILLER_12_219
*1219 FILLER_12_227
*1220 FILLER_12_235
*1221 FILLER_12_243
*1222 FILLER_12_251
*1223 FILLER_12_259
*1224 FILLER_12_267
*1225 FILLER_12_269
*1226 FILLER_12_271
*1227 FILLER_12_279
*1228 FILLER_12_287
*1229 FILLER_12_295
*1230 FILLER_12_303
*1231 FILLER_12_311
*1232 FILLER_12_319
*1233 FILLER_12_327
*1234 FILLER_12_329
*1235 FILLER_12_331
*1236 FILLER_12_339
*1237 FILLER_12_347
*1238 FILLER_12_355
*1239 FILLER_12_363
*1240 FILLER_12_371
*1241 FILLER_12_379
*1242 FILLER_12_387
*1243 FILLER_12_389
*1244 FILLER_13_0
*1245 FILLER_13_8
*1246 FILLER_13_16
*1247 FILLER_13_24
*1248 FILLER_13_32
*1249 FILLER_13_40
*1250 FILLER_13_48
*1251 FILLER_13_56
*1252 FILLER_13_61
*1253 FILLER_13_69
*1254 FILLER_13_77
*1255 FILLER_13_85
*1256 FILLER_13_93
*1257 FILLER_13_101
*1258 FILLER_13_109
*1259 FILLER_13_117
*1260 FILLER_13_119
*1261 FILLER_13_121
*1262 FILLER_13_129
*1263 FILLER_13_137
*1264 FILLER_13_145
*1265 FILLER_13_153
*1266 FILLER_13_161
*1267 FILLER_13_169
*1268 FILLER_13_177
*1269 FILLER_13_179
*1270 FILLER_13_181
*1271 FILLER_13_189
*1272 FILLER_13_197
*1273 FILLER_13_205
*1274 FILLER_13_213
*1275 FILLER_13_221
*1276 FILLER_13_229
*1277 FILLER_13_237
*1278 FILLER_13_239
*1279 FILLER_13_241
*1280 FILLER_13_249
*1281 FILLER_13_257
*1282 FILLER_13_265
*1283 FILLER_13_273
*1284 FILLER_13_281
*1285 FILLER_13_289
*1286 FILLER_13_297
*1287 FILLER_13_299
*1288 FILLER_13_301
*1289 FILLER_13_309
*1290 FILLER_13_317
*1291 FILLER_13_325
*1292 FILLER_13_333
*1293 FILLER_13_341
*1294 FILLER_13_349
*1295 FILLER_13_357
*1296 FILLER_13_359
*1297 FILLER_13_361
*1298 FILLER_13_369
*1299 FILLER_13_377
*1300 FILLER_13_385
*1301 FILLER_13_389
*1302 FILLER_14_0
*1303 FILLER_14_8
*1304 FILLER_14_16
*1305 FILLER_14_24
*1306 FILLER_14_28
*1307 FILLER_14_31
*1308 FILLER_14_39
*1309 FILLER_14_47
*1310 FILLER_14_55
*1311 FILLER_14_63
*1312 FILLER_14_71
*1313 FILLER_14_79
*1314 FILLER_14_87
*1315 FILLER_14_89
*1316 FILLER_14_91
*1317 FILLER_14_99
*1318 FILLER_14_107
*1319 FILLER_14_115
*1320 FILLER_14_123
*1321 FILLER_14_131
*1322 FILLER_14_139
*1323 FILLER_14_147
*1324 FILLER_14_149
*1325 FILLER_14_151
*1326 FILLER_14_159
*1327 FILLER_14_167
*1328 FILLER_14_175
*1329 FILLER_14_183
*1330 FILLER_14_191
*1331 FILLER_14_199
*1332 FILLER_14_207
*1333 FILLER_14_209
*1334 FILLER_14_211
*1335 FILLER_14_219
*1336 FILLER_14_227
*1337 FILLER_14_235
*1338 FILLER_14_243
*1339 FILLER_14_251
*1340 FILLER_14_259
*1341 FILLER_14_267
*1342 FILLER_14_269
*1343 FILLER_14_271
*1344 FILLER_14_279
*1345 FILLER_14_287
*1346 FILLER_14_295
*1347 FILLER_14_303
*1348 FILLER_14_311
*1349 FILLER_14_319
*1350 FILLER_14_327
*1351 FILLER_14_329
*1352 FILLER_14_331
*1353 FILLER_14_339
*1354 FILLER_14_347
*1355 FILLER_14_355
*1356 FILLER_14_363
*1357 FILLER_14_371
*1358 FILLER_14_379
*1359 FILLER_14_387
*1360 FILLER_14_389
*1361 FILLER_15_0
*1362 FILLER_15_8
*1363 FILLER_15_16
*1364 FILLER_15_24
*1365 FILLER_15_32
*1366 FILLER_15_40
*1367 FILLER_15_48
*1368 FILLER_15_56
*1369 FILLER_15_61
*1370 FILLER_15_69
*1371 FILLER_15_77
*1372 FILLER_15_85
*1373 FILLER_15_93
*1374 FILLER_15_101
*1375 FILLER_15_109
*1376 FILLER_15_117
*1377 FILLER_15_119
*1378 FILLER_15_121
*1379 FILLER_15_129
*1380 FILLER_15_137
*1381 FILLER_15_145
*1382 FILLER_15_153
*1383 FILLER_15_161
*1384 FILLER_15_169
*1385 FILLER_15_177
*1386 FILLER_15_179
*1387 FILLER_15_181
*1388 FILLER_15_189
*1389 FILLER_15_197
*1390 FILLER_15_205
*1391 FILLER_15_213
*1392 FILLER_15_221
*1393 FILLER_15_229
*1394 FILLER_15_237
*1395 FILLER_15_239
*1396 FILLER_15_241
*1397 FILLER_15_249
*1398 FILLER_15_257
*1399 FILLER_15_265
*1400 FILLER_15_273
*1401 FILLER_15_281
*1402 FILLER_15_289
*1403 FILLER_15_297
*1404 FILLER_15_299
*1405 FILLER_15_301
*1406 FILLER_15_309