*SPEF "ieee 1481-1999"
*DESIGN "register8"
*DATE "23:48:02 Tuesday April 21, 2026"
*VENDOR "The OpenROAD Project"
*PROGRAM "OpenROAD"
*VERSION "26Q2-209-g0d9d73ffba"
*DESIGN_FLOW "NAME_SCOPE LOCAL" "PIN_CAP NONE"
*DIVIDER /
*DELIMITER :
*BUS_DELIMITER []
*T_UNIT 1 NS
*C_UNIT 1 PF
*R_UNIT 1 OHM
*L_UNIT 1 HENRY

*NAME_MAP
*1 _00_
*2 _01_
*3 _02_
*4 _03_
*5 _04_
*6 _05_
*7 _06_
*8 _07_
*9 d[0]
*10 clk
*11 net1
*12 net2
*13 net3
*14 net4
*15 net5
*16 net6
*17 net7
*18 net8
*19 net9
*20 net11
*21 net12
*22 net13
*23 net14
*24 net15
*25 net16
*26 net17
*27 net18
*28 net10
*31 d[1]
*32 d[2]
*33 d[3]
*34 d[4]
*35 d[5]
*36 d[6]
*37 d[7]
*38 en
*39 rst_n
*40 q[0]
*41 q[1]
*42 q[2]
*43 q[3]
*44 q[4]
*45 q[5]
*46 q[6]
*47 q[7]
*48 clknet_0_clk
*49 clknet_1_0__leaf_clk
*50 clknet_1_1__leaf_clk
*51 input1
*52 _10_
*53 _11_
*54 _12_
*55 _13_
*56 _14_
*57 _15_
*58 _16_
*59 _17_
*60 q\[0\]\$_DFFE_PN0P_
*61 q\[1\]\$_DFFE_PN0P_
*62 q\[2\]\$_DFFE_PN0P_
*63 q\[3\]\$_DFFE_PN0P_
*64 q\[4\]\$_DFFE_PN0P_
*65 q\[5\]\$_DFFE_PN0P_
*66 q\[6\]\$_DFFE_PN0P_
*67 q\[7\]\$_DFFE_PN0P_
*68 TAP_TAPCELL_ROW_0_0
*69 TAP_TAPCELL_ROW_0_1
*70 TAP_TAPCELL_ROW_0_2
*71 TAP_TAPCELL_ROW_0_3
*72 TAP_TAPCELL_ROW_0_4
*73 TAP_TAPCELL_ROW_0_5
*74 TAP_TAPCELL_ROW_0_6
*75 TAP_TAPCELL_ROW_0_7
*76 TAP_TAPCELL_ROW_0_8
*77 TAP_TAPCELL_ROW_0_9
*78 TAP_TAPCELL_ROW_0_10
*79 TAP_TAPCELL_ROW_0_11
*80 TAP_TAPCELL_ROW_0_12
*81 TAP_TAPCELL_ROW_1_13
*82 TAP_TAPCELL_ROW_1_14
*83 TAP_TAPCELL_ROW_1_15
*84 TAP_TAPCELL_ROW_1_16
*85 TAP_TAPCELL_ROW_1_17
*86 TAP_TAPCELL_ROW_1_18
*87 TAP_TAPCELL_ROW_2_19
*88 TAP_TAPCELL_ROW_2_20
*89 TAP_TAPCELL_ROW_2_21
*90 TAP_TAPCELL_ROW_2_22
*91 TAP_TAPCELL_ROW_2_23
*92 TAP_TAPCELL_ROW_2_24
*93 TAP_TAPCELL_ROW_2_25
*94 TAP_TAPCELL_ROW_3_26
*95 TAP_TAPCELL_ROW_3_27
*96 TAP_TAPCELL_ROW_3_28
*97 TAP_TAPCELL_ROW_3_29
*98 TAP_TAPCELL_ROW_3_30
*99 TAP_TAPCELL_ROW_3_31
*100 TAP_TAPCELL_ROW_4_32
*101 TAP_TAPCELL_ROW_4_33
*102 TAP_TAPCELL_ROW_4_34
*103 TAP_TAPCELL_ROW_4_35
*104 TAP_TAPCELL_ROW_4_36
*105 TAP_TAPCELL_ROW_4_37
*106 TAP_TAPCELL_ROW_4_38
*107 TAP_TAPCELL_ROW_5_39
*108 TAP_TAPCELL_ROW_5_40
*109 TAP_TAPCELL_ROW_5_41
*110 TAP_TAPCELL_ROW_5_42
*111 TAP_TAPCELL_ROW_5_43
*112 TAP_TAPCELL_ROW_5_44
*113 TAP_TAPCELL_ROW_6_45
*114 TAP_TAPCELL_ROW_6_46
*115 TAP_TAPCELL_ROW_6_47
*116 TAP_TAPCELL_ROW_6_48
*117 TAP_TAPCELL_ROW_6_49
*118 TAP_TAPCELL_ROW_6_50
*119 TAP_TAPCELL_ROW_6_51
*120 TAP_TAPCELL_ROW_7_52
*121 TAP_TAPCELL_ROW_7_53
*122 TAP_TAPCELL_ROW_7_54
*123 TAP_TAPCELL_ROW_7_55
*124 TAP_TAPCELL_ROW_7_56
*125 TAP_TAPCELL_ROW_7_57
*126 TAP_TAPCELL_ROW_8_58
*127 TAP_TAPCELL_ROW_8_59
*128 TAP_TAPCELL_ROW_8_60
*129 TAP_TAPCELL_ROW_8_61
*130 TAP_TAPCELL_ROW_8_62
*131 TAP_TAPCELL_ROW_8_63
*132 TAP_TAPCELL_ROW_8_64
*133 TAP_TAPCELL_ROW_9_65
*134 TAP_TAPCELL_ROW_9_66
*135 TAP_TAPCELL_ROW_9_67
*136 TAP_TAPCELL_ROW_9_68
*137 TAP_TAPCELL_ROW_9_69
*138 TAP_TAPCELL_ROW_9_70
*139 TAP_TAPCELL_ROW_10_71
*140 TAP_TAPCELL_ROW_10_72
*141 TAP_TAPCELL_ROW_10_73
*142 TAP_TAPCELL_ROW_10_74
*143 TAP_TAPCELL_ROW_10_75
*144 TAP_TAPCELL_ROW_10_76
*145 TAP_TAPCELL_ROW_10_77
*146 TAP_TAPCELL_ROW_11_78
*147 TAP_TAPCELL_ROW_11_79
*148 TAP_TAPCELL_ROW_11_80
*149 TAP_TAPCELL_ROW_11_81
*150 TAP_TAPCELL_ROW_11_82
*151 TAP_TAPCELL_ROW_11_83
*152 TAP_TAPCELL_ROW_12_84
*153 TAP_TAPCELL_ROW_12_85
*154 TAP_TAPCELL_ROW_12_86
*155 TAP_TAPCELL_ROW_12_87
*156 TAP_TAPCELL_ROW_12_88
*157 TAP_TAPCELL_ROW_12_89
*158 TAP_TAPCELL_ROW_12_90
*159 TAP_TAPCELL_ROW_13_91
*160 TAP_TAPCELL_ROW_13_92
*161 TAP_TAPCELL_ROW_13_93
*162 TAP_TAPCELL_ROW_13_94
*163 TAP_TAPCELL_ROW_13_95
*164 TAP_TAPCELL_ROW_13_96
*165 TAP_TAPCELL_ROW_14_97
*166 TAP_TAPCELL_ROW_14_98
*167 TAP_TAPCELL_ROW_14_99
*168 TAP_TAPCELL_ROW_14_100
*169 TAP_TAPCELL_ROW_14_101
*170 TAP_TAPCELL_ROW_14_102
*171 TAP_TAPCELL_ROW_14_103
*172 TAP_TAPCELL_ROW_15_104
*173 TAP_TAPCELL_ROW_15_105
*174 TAP_TAPCELL_ROW_15_106
*175 TAP_TAPCELL_ROW_15_107
*176 TAP_TAPCELL_ROW_15_108
*177 TAP_TAPCELL_ROW_15_109
*178 TAP_TAPCELL_ROW_16_110
*179 TAP_TAPCELL_ROW_16_111
*180 TAP_TAPCELL_ROW_16_112
*181 TAP_TAPCELL_ROW_16_113
*182 TAP_TAPCELL_ROW_16_114
*183 TAP_TAPCELL_ROW_16_115
*184 TAP_TAPCELL_ROW_16_116
*185 TAP_TAPCELL_ROW_17_117
*186 TAP_TAPCELL_ROW_17_118
*187 TAP_TAPCELL_ROW_17_119
*188 TAP_TAPCELL_ROW_17_120
*189 TAP_TAPCELL_ROW_17_121
*190 TAP_TAPCELL_ROW_17_122
*191 TAP_TAPCELL_ROW_18_123
*192 TAP_TAPCELL_ROW_18_124
*193 TAP_TAPCELL_ROW_18_125
*194 TAP_TAPCELL_ROW_18_126
*195 TAP_TAPCELL_ROW_18_127
*196 TAP_TAPCELL_ROW_18_128
*197 TAP_TAPCELL_ROW_18_129
*198 TAP_TAPCELL_ROW_19_130
*199 TAP_TAPCELL_ROW_19_131
*200 TAP_TAPCELL_ROW_19_132
*201 TAP_TAPCELL_ROW_19_133
*202 TAP_TAPCELL_ROW_19_134
*203 TAP_TAPCELL_ROW_19_135
*204 TAP_TAPCELL_ROW_20_136
*205 TAP_TAPCELL_ROW_20_137
*206 TAP_TAPCELL_ROW_20_138
*207 TAP_TAPCELL_ROW_20_139
*208 TAP_TAPCELL_ROW_20_140
*209 TAP_TAPCELL_ROW_20_141
*210 TAP_TAPCELL_ROW_20_142
*211 TAP_TAPCELL_ROW_21_143
*212 TAP_TAPCELL_ROW_21_144
*213 TAP_TAPCELL_ROW_21_145
*214 TAP_TAPCELL_ROW_21_146
*215 TAP_TAPCELL_ROW_21_147
*216 TAP_TAPCELL_ROW_21_148
*217 TAP_TAPCELL_ROW_22_149
*218 TAP_TAPCELL_ROW_22_150
*219 TAP_TAPCELL_ROW_22_151
*220 TAP_TAPCELL_ROW_22_152
*221 TAP_TAPCELL_ROW_22_153
*222 TAP_TAPCELL_ROW_22_154
*223 TAP_TAPCELL_ROW_22_155
*224 TAP_TAPCELL_ROW_23_156
*225 TAP_TAPCELL_ROW_23_157
*226 TAP_TAPCELL_ROW_23_158
*227 TAP_TAPCELL_ROW_23_159
*228 TAP_TAPCELL_ROW_23_160
*229 TAP_TAPCELL_ROW_23_161
*230 TAP_TAPCELL_ROW_24_162
*231 TAP_TAPCELL_ROW_24_163
*232 TAP_TAPCELL_ROW_24_164
*233 TAP_TAPCELL_ROW_24_165
*234 TAP_TAPCELL_ROW_24_166
*235 TAP_TAPCELL_ROW_24_167
*236 TAP_TAPCELL_ROW_24_168
*237 TAP_TAPCELL_ROW_25_169
*238 TAP_TAPCELL_ROW_25_170
*239 TAP_TAPCELL_ROW_25_171
*240 TAP_TAPCELL_ROW_25_172
*241 TAP_TAPCELL_ROW_25_173
*242 TAP_TAPCELL_ROW_25_174
*243 TAP_TAPCELL_ROW_26_175
*244 TAP_TAPCELL_ROW_26_176
*245 TAP_TAPCELL_ROW_26_177
*246 TAP_TAPCELL_ROW_26_178
*247 TAP_TAPCELL_ROW_26_179
*248 TAP_TAPCELL_ROW_26_180
*249 TAP_TAPCELL_ROW_26_181
*250 TAP_TAPCELL_ROW_27_182
*251 TAP_TAPCELL_ROW_27_183
*252 TAP_TAPCELL_ROW_27_184
*253 TAP_TAPCELL_ROW_27_185
*254 TAP_TAPCELL_ROW_27_186
*255 TAP_TAPCELL_ROW_27_187
*256 TAP_TAPCELL_ROW_28_188
*257 TAP_TAPCELL_ROW_28_189
*258 TAP_TAPCELL_ROW_28_190
*259 TAP_TAPCELL_ROW_28_191
*260 TAP_TAPCELL_ROW_28_192
*261 TAP_TAPCELL_ROW_28_193
*262 TAP_TAPCELL_ROW_28_194
*263 TAP_TAPCELL_ROW_29_195
*264 TAP_TAPCELL_ROW_29_196
*265 TAP_TAPCELL_ROW_29_197
*266 TAP_TAPCELL_ROW_29_198
*267 TAP_TAPCELL_ROW_29_199
*268 TAP_TAPCELL_ROW_29_200
*269 TAP_TAPCELL_ROW_30_201
*270 TAP_TAPCELL_ROW_30_202
*271 TAP_TAPCELL_ROW_30_203
*272 TAP_TAPCELL_ROW_30_204
*273 TAP_TAPCELL_ROW_30_205
*274 TAP_TAPCELL_ROW_30_206
*275 TAP_TAPCELL_ROW_30_207
*276 TAP_TAPCELL_ROW_31_208
*277 TAP_TAPCELL_ROW_31_209
*278 TAP_TAPCELL_ROW_31_210
*279 TAP_TAPCELL_ROW_31_211
*280 TAP_TAPCELL_ROW_31_212
*281 TAP_TAPCELL_ROW_31_213
*282 TAP_TAPCELL_ROW_32_214
*283 TAP_TAPCELL_ROW_32_215
*284 TAP_TAPCELL_ROW_32_216
*285 TAP_TAPCELL_ROW_32_217
*286 TAP_TAPCELL_ROW_32_218
*287 TAP_TAPCELL_ROW_32_219
*288 TAP_TAPCELL_ROW_32_220
*289 TAP_TAPCELL_ROW_33_221
*290 TAP_TAPCELL_ROW_33_222
*291 TAP_TAPCELL_ROW_33_223
*292 TAP_TAPCELL_ROW_33_224
*293 TAP_TAPCELL_ROW_33_225
*294 TAP_TAPCELL_ROW_33_226
*295 TAP_TAPCELL_ROW_34_227
*296 TAP_TAPCELL_ROW_34_228
*297 TAP_TAPCELL_ROW_34_229
*298 TAP_TAPCELL_ROW_34_230
*299 TAP_TAPCELL_ROW_34_231
*300 TAP_TAPCELL_ROW_34_232
*301 TAP_TAPCELL_ROW_34_233
*302 TAP_TAPCELL_ROW_35_234
*303 TAP_TAPCELL_ROW_35_235
*304 TAP_TAPCELL_ROW_35_236
*305 TAP_TAPCELL_ROW_35_237
*306 TAP_TAPCELL_ROW_35_238
*307 TAP_TAPCELL_ROW_35_239
*308 TAP_TAPCELL_ROW_36_240
*309 TAP_TAPCELL_ROW_36_241
*310 TAP_TAPCELL_ROW_36_242
*311 TAP_TAPCELL_ROW_36_243
*312 TAP_TAPCELL_ROW_36_244
*313 TAP_TAPCELL_ROW_36_245
*314 TAP_TAPCELL_ROW_36_246
*315 TAP_TAPCELL_ROW_37_247
*316 TAP_TAPCELL_ROW_37_248
*317 TAP_TAPCELL_ROW_37_249
*318 TAP_TAPCELL_ROW_37_250
*319 TAP_TAPCELL_ROW_37_251
*320 TAP_TAPCELL_ROW_37_252
*321 TAP_TAPCELL_ROW_38_253
*322 TAP_TAPCELL_ROW_38_254
*323 TAP_TAPCELL_ROW_38_255
*324 TAP_TAPCELL_ROW_38_256
*325 TAP_TAPCELL_ROW_38_257
*326 TAP_TAPCELL_ROW_38_258
*327 TAP_TAPCELL_ROW_38_259
*328 TAP_TAPCELL_ROW_39_260
*329 TAP_TAPCELL_ROW_39_261
*330 TAP_TAPCELL_ROW_39_262
*331 TAP_TAPCELL_ROW_39_263
*332 TAP_TAPCELL_ROW_39_264
*333 TAP_TAPCELL_ROW_39_265
*334 TAP_TAPCELL_ROW_40_266
*335 TAP_TAPCELL_ROW_40_267
*336 TAP_TAPCELL_ROW_40_268
*337 TAP_TAPCELL_ROW_40_269
*338 TAP_TAPCELL_ROW_40_270
*339 TAP_TAPCELL_ROW_40_271
*340 TAP_TAPCELL_ROW_40_272
*341 TAP_TAPCELL_ROW_41_273
*342 TAP_TAPCELL_ROW_41_274
*343 TAP_TAPCELL_ROW_41_275
*344 TAP_TAPCELL_ROW_41_276
*345 TAP_TAPCELL_ROW_41_277
*346 TAP_TAPCELL_ROW_41_278
*347 TAP_TAPCELL_ROW_42_279
*348 TAP_TAPCELL_ROW_42_280
*349 TAP_TAPCELL_ROW_42_281
*350 TAP_TAPCELL_ROW_42_282
*351 TAP_TAPCELL_ROW_42_283
*352 TAP_TAPCELL_ROW_42_284
*353 TAP_TAPCELL_ROW_42_285
*354 TAP_TAPCELL_ROW_43_286
*355 TAP_TAPCELL_ROW_43_287
*356 TAP_TAPCELL_ROW_43_288
*357 TAP_TAPCELL_ROW_43_289
*358 TAP_TAPCELL_ROW_43_290
*359 TAP_TAPCELL_ROW_43_291
*360 TAP_TAPCELL_ROW_44_292
*361 TAP_TAPCELL_ROW_44_293
*362 TAP_TAPCELL_ROW_44_294
*363 TAP_TAPCELL_ROW_44_295
*364 TAP_TAPCELL_ROW_44_296
*365 TAP_TAPCELL_ROW_44_297
*366 TAP_TAPCELL_ROW_44_298
*367 TAP_TAPCELL_ROW_45_299
*368 TAP_TAPCELL_ROW_45_300
*369 TAP_TAPCELL_ROW_45_301
*370 TAP_TAPCELL_ROW_45_302
*371 TAP_TAPCELL_ROW_45_303
*372 TAP_TAPCELL_ROW_45_304
*373 TAP_TAPCELL_ROW_46_305
*374 TAP_TAPCELL_ROW_46_306
*375 TAP_TAPCELL_ROW_46_307
*376 TAP_TAPCELL_ROW_46_308
*377 TAP_TAPCELL_ROW_46_309
*378 TAP_TAPCELL_ROW_46_310
*379 TAP_TAPCELL_ROW_46_311
*380 TAP_TAPCELL_ROW_47_312
*381 TAP_TAPCELL_ROW_47_313
*382 TAP_TAPCELL_ROW_47_314
*383 TAP_TAPCELL_ROW_47_315
*384 TAP_TAPCELL_ROW_47_316
*385 TAP_TAPCELL_ROW_47_317
*386 TAP_TAPCELL_ROW_48_318
*387 TAP_TAPCELL_ROW_48_319
*388 TAP_TAPCELL_ROW_48_320
*389 TAP_TAPCELL_ROW_48_321
*390 TAP_TAPCELL_ROW_48_322
*391 TAP_TAPCELL_ROW_48_323
*392 TAP_TAPCELL_ROW_48_324
*393 TAP_TAPCELL_ROW_49_325
*394 TAP_TAPCELL_ROW_49_326
*395 TAP_TAPCELL_ROW_49_327
*396 TAP_TAPCELL_ROW_49_328
*397 TAP_TAPCELL_ROW_49_329
*398 TAP_TAPCELL_ROW_49_330
*399 TAP_TAPCELL_ROW_50_331
*400 TAP_TAPCELL_ROW_50_332
*401 TAP_TAPCELL_ROW_50_333
*402 TAP_TAPCELL_ROW_50_334
*403 TAP_TAPCELL_ROW_50_335
*404 TAP_TAPCELL_ROW_50_336
*405 TAP_TAPCELL_ROW_50_337
*406 TAP_TAPCELL_ROW_51_338
*407 TAP_TAPCELL_ROW_51_339
*408 TAP_TAPCELL_ROW_51_340
*409 TAP_TAPCELL_ROW_51_341
*410 TAP_TAPCELL_ROW_51_342
*411 TAP_TAPCELL_ROW_51_343
*412 TAP_TAPCELL_ROW_52_344
*413 TAP_TAPCELL_ROW_52_345
*414 TAP_TAPCELL_ROW_52_346
*415 TAP_TAPCELL_ROW_52_347
*416 TAP_TAPCELL_ROW_52_348
*417 TAP_TAPCELL_ROW_52_349
*418 TAP_TAPCELL_ROW_52_350
*419 TAP_TAPCELL_ROW_53_351
*420 TAP_TAPCELL_ROW_53_352
*421 TAP_TAPCELL_ROW_53_353
*422 TAP_TAPCELL_ROW_53_354
*423 TAP_TAPCELL_ROW_53_355
*424 TAP_TAPCELL_ROW_53_356
*425 TAP_TAPCELL_ROW_54_357
*426 TAP_TAPCELL_ROW_54_358
*427 TAP_TAPCELL_ROW_54_359
*428 TAP_TAPCELL_ROW_54_360
*429 TAP_TAPCELL_ROW_54_361
*430 TAP_TAPCELL_ROW_54_362
*431 TAP_TAPCELL_ROW_54_363
*432 TAP_TAPCELL_ROW_55_364
*433 TAP_TAPCELL_ROW_55_365
*434 TAP_TAPCELL_ROW_55_366
*435 TAP_TAPCELL_ROW_55_367
*436 TAP_TAPCELL_ROW_55_368
*437 TAP_TAPCELL_ROW_55_369
*438 TAP_TAPCELL_ROW_56_370
*439 TAP_TAPCELL_ROW_56_371
*440 TAP_TAPCELL_ROW_56_372
*441 TAP_TAPCELL_ROW_56_373
*442 TAP_TAPCELL_ROW_56_374
*443 TAP_TAPCELL_ROW_56_375
*444 TAP_TAPCELL_ROW_56_376
*445 TAP_TAPCELL_ROW_57_377
*446 TAP_TAPCELL_ROW_57_378
*447 TAP_TAPCELL_ROW_57_379
*448 TAP_TAPCELL_ROW_57_380
*449 TAP_TAPCELL_ROW_57_381
*450 TAP_TAPCELL_ROW_57_382
*451 TAP_TAPCELL_ROW_58_383
*452 TAP_TAPCELL_ROW_58_384
*453 TAP_TAPCELL_ROW_58_385
*454 TAP_TAPCELL_ROW_58_386
*455 TAP_TAPCELL_ROW_58_387
*456 TAP_TAPCELL_ROW_58_388
*457 TAP_TAPCELL_ROW_58_389
*458 TAP_TAPCELL_ROW_59_390
*459 TAP_TAPCELL_ROW_59_391
*460 TAP_TAPCELL_ROW_59_392
*461 TAP_TAPCELL_ROW_59_393
*462 TAP_TAPCELL_ROW_59_394
*463 TAP_TAPCELL_ROW_59_395
*464 TAP_TAPCELL_ROW_60_396
*465 TAP_TAPCELL_ROW_60_397
*466 TAP_TAPCELL_ROW_60_398
*467 TAP_TAPCELL_ROW_60_399
*468 TAP_TAPCELL_ROW_60_400
*469 TAP_TAPCELL_ROW_60_401
*470 TAP_TAPCELL_ROW_60_402
*471 TAP_TAPCELL_ROW_61_403
*472 TAP_TAPCELL_ROW_61_404
*473 TAP_TAPCELL_ROW_61_405
*474 TAP_TAPCELL_ROW_61_406
*475 TAP_TAPCELL_ROW_61_407
*476 TAP_TAPCELL_ROW_61_408
*477 TAP_TAPCELL_ROW_62_409
*478 TAP_TAPCELL_ROW_62_410
*479 TAP_TAPCELL_ROW_62_411
*480 TAP_TAPCELL_ROW_62_412
*481 TAP_TAPCELL_ROW_62_413
*482 TAP_TAPCELL_ROW_62_414
*483 TAP_TAPCELL_ROW_62_415
*484 TAP_TAPCELL_ROW_63_416
*485 TAP_TAPCELL_ROW_63_417
*486 TAP_TAPCELL_ROW_63_418
*487 TAP_TAPCELL_ROW_63_419
*488 TAP_TAPCELL_ROW_63_420
*489 TAP_TAPCELL_ROW_63_421
*490 TAP_TAPCELL_ROW_64_422
*491 TAP_TAPCELL_ROW_64_423
*492 TAP_TAPCELL_ROW_64_424
*493 TAP_TAPCELL_ROW_64_425
*494 TAP_TAPCELL_ROW_64_426
*495 TAP_TAPCELL_ROW_64_427
*496 TAP_TAPCELL_ROW_64_428
*497 TAP_TAPCELL_ROW_64_429
*498 TAP_TAPCELL_ROW_64_430
*499 TAP_TAPCELL_ROW_64_431
*500 TAP_TAPCELL_ROW_64_432
*501 TAP_TAPCELL_ROW_64_433
*502 TAP_TAPCELL_ROW_64_434
*503 input2
*504 input3
*505 input4
*506 input5
*507 input6
*508 input7
*509 input8
*510 input9
*511 input10
*512 output11
*513 output12
*514 output13
*515 output14
*516 output15
*517 output16
*518 output17
*519 output18
*520 clkbuf_0_clk
*521 clkbuf_1_0__f_clk
*522 clkbuf_1_1__f_clk
*523 ANTENNA_1
*524 FILLER_0_0
*525 FILLER_0_8
*526 FILLER_0_16
*527 FILLER_0_24
*528 FILLER_0_28
*529 FILLER_0_31
*530 FILLER_0_39
*531 FILLER_0_47
*532 FILLER_0_55
*533 FILLER_0_59
*534 FILLER_0_61
*535 FILLER_0_69
*536 FILLER_0_77
*537 FILLER_0_85
*538 FILLER_0_89
*539 FILLER_0_91
*540 FILLER_0_99
*541 FILLER_0_107
*542 FILLER_0_115
*543 FILLER_0_119
*544 FILLER_0_121
*545 FILLER_0_129
*546 FILLER_0_137
*547 FILLER_0_145
*548 FILLER_0_149
*549 FILLER_0_151
*550 FILLER_0_159
*551 FILLER_0_167
*552 FILLER_0_179
*553 FILLER_0_181
*554 FILLER_0_189
*555 FILLER_0_193
*556 FILLER_0_202
*557 FILLER_0_211
*558 FILLER_0_219
*559 FILLER_0_227
*560 FILLER_0_235
*561 FILLER_0_239
*562 FILLER_0_241
*563 FILLER_0_249
*564 FILLER_0_257
*565 FILLER_0_265
*566 FILLER_0_269
*567 FILLER_0_271
*568 FILLER_0_279
*569 FILLER_0_287
*570 FILLER_0_295
*571 FILLER_0_299
*572 FILLER_0_301
*573 FILLER_0_309
*574 FILLER_0_317
*575 FILLER_0_325
*576 FILLER_0_329
*577 FILLER_0_331
*578 FILLER_0_339
*579 FILLER_0_347
*580 FILLER_0_355
*581 FILLER_0_359
*582 FILLER_0_361
*583 FILLER_0_369
*584 FILLER_0_377
*585 FILLER_0_385
*586 FILLER_0_389
*587 FILLER_1_0
*588 FILLER_1_8
*589 FILLER_1_16
*590 FILLER_1_24
*591 FILLER_1_32
*592 FILLER_1_40
*593 FILLER_1_48
*594 FILLER_1_56
*595 FILLER_1_61
*596 FILLER_1_69
*597 FILLER_1_77
*598 FILLER_1_85
*599 FILLER_1_93
*600 FILLER_1_101
*601 FILLER_1_109
*602 FILLER_1_117
*603 FILLER_1_119
*604 FILLER_1_121
*605 FILLER_1_129
*606 FILLER_1_137
*607 FILLER_1_145
*608 FILLER_1_153
*609 FILLER_1_161
*610 FILLER_1_165
*611 FILLER_1_167
*612 FILLER_1_189
*613 FILLER_1_219
*614 FILLER_1_227
*615 FILLER_1_235
*616 FILLER_1_239
*617 FILLER_1_241
*618 FILLER_1_249
*619 FILLER_1_257
*620 FILLER_1_265
*621 FILLER_1_273
*622 FILLER_1_281
*623 FILLER_1_289
*624 FILLER_1_297
*625 FILLER_1_299
*626 FILLER_1_301
*627 FILLER_1_309
*628 FILLER_1_317
*629 FILLER_1_325
*630 FILLER_1_333
*631 FILLER_1_341
*632 FILLER_1_349
*633 FILLER_1_357
*634 FILLER_1_359
*635 FILLER_1_361
*636 FILLER_1_369
*637 FILLER_1_377
*638 FILLER_1_385
*639 FILLER_1_389
*640 FILLER_2_0
*641 FILLER_2_8
*642 FILLER_2_16
*643 FILLER_2_24
*644 FILLER_2_28
*645 FILLER_2_31
*646 FILLER_2_39
*647 FILLER_2_47
*648 FILLER_2_55
*649 FILLER_2_63
*650 FILLER_2_71
*651 FILLER_2_79
*652 FILLER_2_87
*653 FILLER_2_89
*654 FILLER_2_91
*655 FILLER_2_99
*656 FILLER_2_107
*657 FILLER_2_115
*658 FILLER_2_123
*659 FILLER_2_131
*660 FILLER_2_139
*661 FILLER_2_147
*662 FILLER_2_149
*663 FILLER_2_151
*664 FILLER_2_159
*665 FILLER_2_167
*666 FILLER_2_171
*667 FILLER_2_201
*668 FILLER_2_209
*669 FILLER_2_211
*670 FILLER_2_219
*671 FILLER_2_227
*672 FILLER_2_235
*673 FILLER_2_243
*674 FILLER_2_251
*675 FILLER_2_259
*676 FILLER_2_267
*677 FILLER_2_269
*678 FILLER_2_271
*679 FILLER_2_279
*680 FILLER_2_287
*681 FILLER_2_295
*682 FILLER_2_303
*683 FILLER_2_311
*684 FILLER_2_319
*685 FILLER_2_327
*686 FILLER_2_329
*687 FILLER_2_331
*688 FILLER_2_339
*689 FILLER_2_347
*690 FILLER_2_355
*691 FILLER_2_363
*692 FILLER_2_371
*693 FILLER_2_379
*694 FILLER_2_387
*695 FILLER_2_389
*696 FILLER_3_0
*697 FILLER_3_8
*698 FILLER_3_16
*699 FILLER_3_24
*700 FILLER_3_32
*701 FILLER_3_40
*702 FILLER_3_48
*703 FILLER_3_56
*704 FILLER_3_61
*705 FILLER_3_69
*706 FILLER_3_77
*707 FILLER_3_85
*708 FILLER_3_93
*709 FILLER_3_101
*710 FILLER_3_109
*711 FILLER_3_117
*712 FILLER_3_119
*713 FILLER_3_121
*714 FILLER_3_129
*715 FILLER_3_137
*716 FILLER_3_145
*717 FILLER_3_153
*718 FILLER_3_161
*719 FILLER_3_169
*720 FILLER_3_177
*721 FILLER_3_179
*722 FILLER_3_181
*723 FILLER_3_189
*724 FILLER_3_193
*725 FILLER_3_206
*726 FILLER_3_214
*727 FILLER_3_222
*728 FILLER_3_230
*729 FILLER_3_238
*730 FILLER_3_241
*731 FILLER_3_249
*732 FILLER_3_257
*733 FILLER_3_265
*734 FILLER_3_273
*735 FILLER_3_281
*736 FILLER_3_289
*737 FILLER_3_297
*738 FILLER_3_299
*739 FILLER_3_301
*740 FILLER_3_309
*741 FILLER_3_317
*742 FILLER_3_325
*743 FILLER_3_333
*744 FILLER_3_341
*745 FILLER_3_349
*746 FILLER_3_357
*747 FILLER_3_359
*748 FILLER_3_361
*749 FILLER_3_369
*750 FILLER_3_377
*751 FILLER_3_385
*752 FILLER_3_389
*753 FILLER_4_0
*754 FILLER_4_8
*755 FILLER_4_16
*756 FILLER_4_24
*757 FILLER_4_28
*758 FILLER_4_31
*759 FILLER_4_39
*760 FILLER_4_47
*761 FILLER_4_55
*762 FILLER_4_63
*763 FILLER_4_71
*764 FILLER_4_79
*765 FILLER_4_87
*766 FILLER_4_89
*767 FILLER_4_91
*768 FILLER_4_99
*769 FILLER_4_107
*770 FILLER_4_115
*771 FILLER_4_123
*772 FILLER_4_131
*773 FILLER_4_139
*774 FILLER_4_147
*775 FILLER_4_149
*776 FILLER_4_151
*777 FILLER_4_159
*778 FILLER_4_167
*779 FILLER_4_175
*780 FILLER_4_183
*781 FILLER_4_191
*782 FILLER_4_199
*783 FILLER_4_207
*784 FILLER_4_209
*785 FILLER_4_211
*786 FILLER_4_219
*787 FILLER_4_227
*788 FILLER_4_235
*789 FILLER_4_243
*790 FILLER_4_251
*791 FILLER_4_259
*792 FILLER_4_267
*793 FILLER_4_269
*794 FILLER_4_271
*795 FILLER_4_279
*796 FILLER_4_287
*797 FILLER_4_295
*798 FILLER_4_303
*799 FILLER_4_311
*800 FILLER_4_319
*801 FILLER_4_327
*802 FILLER_4_329
*803 FILLER_4_331
*804 FILLER_4_339
*805 FILLER_4_347
*806 FILLER_4_355
*807 FILLER_4_363
*808 FILLER_4_371
*809 FILLER_4_379
*810 FILLER_4_387
*811 FILLER_4_389
*812 FILLER_5_0
*813 FILLER_5_8
*814 FILLER_5_16
*815 FILLER_5_24
*816 FILLER_5_32
*817 FILLER_5_40
*818 FILLER_5_48
*819 FILLER_5_56
*820 FILLER_5_61
*821 FILLER_5_69
*822 FILLER_5_77
*823 FILLER_5_85
*824 FILLER_5_93
*825 FILLER_5_101
*826 FILLER_5_109
*827 FILLER_5_117
*828 FILLER_5_119
*829 FILLER_5_121
*830 FILLER_5_129
*831 FILLER_5_137
*832 FILLER_5_145
*833 FILLER_5_153
*834 FILLER_5_161
*835 FILLER_5_169
*836 FILLER_5_177
*837 FILLER_5_179
*838 FILLER_5_181
*839 FILLER_5_189
*840 FILLER_5_197
*841 FILLER_5_205
*842 FILLER_5_213
*843 FILLER_5_221
*844 FILLER_5_229
*845 FILLER_5_237
*846 FILLER_5_239
*847 FILLER_5_241
*848 FILLER_5_249
*849 FILLER_5_257
*850 FILLER_5_265
*851 FILLER_5_273
*852 FILLER_5_281
*853 FILLER_5_289
*854 FILLER_5_297
*855 FILLER_5_299
*856 FILLER_5_301
*857 FILLER_5_309
*858 FILLER_5_317
*859 FILLER_5_325
*860 FILLER_5_333
*861 FILLER_5_341
*862 FILLER_5_349
*863 FILLER_5_357
*864 FILLER_5_359
*865 FILLER_5_361
*866 FILLER_5_369
*867 FILLER_5_377
*868 FILLER_5_385
*869 FILLER_5_389
*870 FILLER_6_0
*871 FILLER_6_8
*872 FILLER_6_16
*873 FILLER_6_24
*874 FILLER_6_28
*875 FILLER_6_31
*876 FILLER_6_39
*877 FILLER_6_47
*878 FILLER_6_55
*879 FILLER_6_63
*880 FILLER_6_71
*881 FILLER_6_79
*882 FILLER_6_87
*883 FILLER_6_89
*884 FILLER_6_91
*885 FILLER_6_99
*886 FILLER_6_107
*887 FILLER_6_115
*888 FILLER_6_123
*889 FILLER_6_131
*890 FILLER_6_139
*891 FILLER_6_147
*892 FILLER_6_149
*893 FILLER_6_151
*894 FILLER_6_159
*895 FILLER_6_167
*896 FILLER_6_175
*897 FILLER_6_183
*898 FILLER_6_191
*899 FILLER_6_199
*900 FILLER_6_207
*901 FILLER_6_209
*902 FILLER_6_211
*903 FILLER_6_219
*904 FILLER_6_227
*905 FILLER_6_235
*906 FILLER_6_243
*907 FILLER_6_251
*908 FILLER_6_259
*909 FILLER_6_267
*910 FILLER_6_269
*911 FILLER_6_271
*912 FILLER_6_279
*913 FILLER_6_287
*914 FILLER_6_295
*915 FILLER_6_303
*916 FILLER_6_311
*917 FILLER_6_319
*918 FILLER_6_327
*919 FILLER_6_329
*920 FILLER_6_331
*921 FILLER_6_339
*922 FILLER_6_347
*923 FILLER_6_355
*924 FILLER_6_363
*925 FILLER_6_371
*926 FILLER_6_379
*927 FILLER_6_387
*928 FILLER_6_389
*929 FILLER_7_0
*930 FILLER_7_8
*931 FILLER_7_16
*932 FILLER_7_24
*933 FILLER_7_32
*934 FILLER_7_40
*935 FILLER_7_48
*936 FILLER_7_56
*937 FILLER_7_61
*938 FILLER_7_69
*939 FILLER_7_77
*940 FILLER_7_85
*941 FILLER_7_93
*942 FILLER_7_101
*943 FILLER_7_109
*944 FILLER_7_117
*945 FILLER_7_119
*946 FILLER_7_121
*947 FILLER_7_129
*948 FILLER_7_137
*949 FILLER_7_145
*950 FILLER_7_153
*951 FILLER_7_161
*952 FILLER_7_169
*953 FILLER_7_177
*954 FILLER_7_179
*955 FILLER_7_181
*956 FILLER_7_189
*957 FILLER_7_197
*958 FILLER_7_205
*959 FILLER_7_213
*960 FILLER_7_221
*961 FILLER_7_229
*962 FILLER_7_237
*963 FILLER_7_239
*964 FILLER_7_241
*965 FILLER_7_249
*966 FILLER_7_257
*967 FILLER_7_265
*968 FILLER_7_273
*969 FILLER_7_281
*970 FILLER_7_289
*971 FILLER_7_297
*972 FILLER_7_299
*973 FILLER_7_301
*974 FILLER_7_309
*975 FILLER_7_317
*976 FILLER_7_325
*977 FILLER_7_333
*978 FILLER_7_341
*979 FILLER_7_349
*980 FILLER_7_357
*981 FILLER_7_359
*982 FILLER_7_361
*983 FILLER_7_369
*984 FILLER_7_377
*985 FILLER_7_385
*986 FILLER_7_389
*987 FILLER_8_0
*988 FILLER_8_8
*989 FILLER_8_16
*990 FILLER_8_24
*991 FILLER_8_28
*992 FILLER_8_31
*993 FILLER_8_39
*994 FILLER_8_47
*995 FILLER_8_55
*996 FILLER_8_63
*997 FILLER_8_71
*998 FILLER_8_79
*999 FILLER_8_87
*1000 FILLER_8_89
*1001 FILLER_8_91
*1002 FILLER_8_99
*1003 FILLER_8_107
*1004 FILLER_8_115
*1005 FILLER_8_123
*1006 FILLER_8_131
*1007 FILLER_8_139
*1008 FILLER_8_147
*1009 FILLER_8_149
*1010 FILLER_8_151
*1011 FILLER_8_159
*1012 FILLER_8_167
*1013 FILLER_8_175
*1014 FILLER_8_183
*1015 FILLER_8_191
*1016 FILLER_8_199
*1017 FILLER_8_207
*1018 FILLER_8_209
*1019 FILLER_8_211
*1020 FILLER_8_219
*1021 FILLER_8_227
*1022 FILLER_8_235
*1023 FILLER_8_243
*1024 FILLER_8_251
*1025 FILLER_8_259
*1026 FILLER_8_267
*1027 FILLER_8_269
*1028 FILLER_8_271
*1029 FILLER_8_279
*1030 FILLER_8_287
*1031 FILLER_8_295
*1032 FILLER_8_303
*1033 FILLER_8_311
*1034 FILLER_8_319
*1035 FILLER_8_327
*1036 FILLER_8_329
*1037 FILLER_8_331
*1038 FILLER_8_339
*1039 FILLER_8_347
*1040 FILLER_8_355
*1041 FILLER_8_363
*1042 FILLER_8_371
*1043 FILLER_8_379
*1044 FILLER_8_387
*1045 FILLER_8_389
*1046 FILLER_9_0
*1047 FILLER_9_8
*1048 FILLER_9_16
*1049 FILLER_9_24
*1050 FILLER_9_32
*1051 FILLER_9_40
*1052 FILLER_9_48
*1053 FILLER_9_56
*1054 FILLER_9_61
*1055 FILLER_9_69
*1056 FILLER_9_77
*1057 FILLER_9_85
*1058 FILLER_9_93
*1059 FILLER_9_101
*1060 FILLER_9_109
*1061 FILLER_9_117
*1062 FILLER_9_119
*1063 FILLER_9_121
*1064 FILLER_9_129
*1065 FILLER_9_137
*1066 FILLER_9_145
*1067 FILLER_9_153
*1068 FILLER_9_161
*1069 FILLER_9_169
*1070 FILLER_9_177
*1071 FILLER_9_179
*1072 FILLER_9_181
*1073 FILLER_9_189
*1074 FILLER_9_197
*1075 FILLER_9_205
*1076 FILLER_9_213
*1077 FILLER_9_221
*1078 FILLER_9_229
*1079 FILLER_9_237
*1080 FILLER_9_239
*1081 FILLER_9_241
*1082 FILLER_9_249
*1083 FILLER_9_257
*1084 FILLER_9_265
*1085 FILLER_9_273
*1086 FILLER_9_281
*1087 FILLER_9_289
*1088 FILLER_9_297
*1089 FILLER_9_299
*1090 FILLER_9_301
*1091 FILLER_9_309
*1092 FILLER_9_317
*1093 FILLER_9_325
*1094 FILLER_9_333
*1095 FILLER_9_341
*1096 FILLER_9_349
*1097 FILLER_9_357
*1098 FILLER_9_359
*1099 FILLER_9_361
*1100 FILLER_9_369
*1101 FILLER_9_377
*1102 FILLER_9_385
*1103 FILLER_9_389
*1104 FILLER_10_0
*1105 FILLER_10_8
*1106 FILLER_10_16
*1107 FILLER_10_24
*1108 FILLER_10_28
*1109 FILLER_10_31
*1110 FILLER_10_39
*1111 FILLER_10_47
*1112 FILLER_10_55
*1113 FILLER_10_63
*1114 FILLER_10_71
*1115 FILLER_10_79
*1116 FILLER_10_87
*1117 FILLER_10_89
*1118 FILLER_10_91
*1119 FILLER_10_99
*1120 FILLER_10_107
*1121 FILLER_10_115
*1122 FILLER_10_123
*1123 FILLER_10_131
*1124 FILLER_10_139
*1125 FILLER_10_147
*1126 FILLER_10_149
*1127 FILLER_10_151
*1128 FILLER_10_159
*1129 FILLER_10_167
*1130 FILLER_10_175
*1131 FILLER_10_183
*1132 FILLER_10_191
*1133 FILLER_10_199
*1134 FILLER_10_207
*1135 FILLER_10_209
*1136 FILLER_10_211
*1137 FILLER_10_219
*1138 FILLER_10_227
*1139 FILLER_10_235
*1140 FILLER_10_243
*1141 FILLER_10_251
*1142 FILLER_10_259
*1143 FILLER_10_267
*1144 FILLER_10_269
*1145 FILLER_10_271
*1146 FILLER_10_279
*1147 FILLER_10_287
*1148 FILLER_10_295
*1149 FILLER_10_303
*1150 FILLER_10_311
*1151 FILLER_10_319
*1152 FILLER_10_327
*1153 FILLER_10_329
*1154 FILLER_10_331
*1155 FILLER_10_339
*1156 FILLER_10_347
*1157 FILLER_10_355
*1158 FILLER_10_363
*1159 FILLER_10_371
*1160 FILLER_10_379
*1161 FILLER_10_387
*1162 FILLER_10_389
*1163 FILLER_11_0
*1164 FILLER_11_8
*1165 FILLER_11_16
*1166 FILLER_11_24
*1167 FILLER_11_32
*1168 FILLER_11_40
*1169 FILLER_11_48
*1170 FILLER_11_56
*1171 FILLER_11_61
*1172 FILLER_11_69
*1173 FILLER_11_77
*1174 FILLER_11_85
*1175 FILLER_11_93
*1176 FILLER_11_101
*1177 FILLER_11_109
*1178 FILLER_11_117
*1179 FILLER_11_119
*1180 FILLER_11_121
*1181 FILLER_11_129
*1182 FILLER_11_137
*1183 FILLER_11_145
*1184 FILLER_11_153
*1185 FILLER_11_161
*1186 FILLER_11_169
*1187 FILLER_11_177
*1188 FILLER_11_179
*1189 FILLER_11_181
*1190 FILLER_11_189
*1191 FILLER_11_197
*1192 FILLER_11_205
*1193 FILLER_11_213
*1194 FILLER_11_221
*1195 FILLER_11_229
*1196 FILLER_11_237
*1197 FILLER_11_239
*1198 FILLER_11_241
*1199 FILLER_11_249
*1200 FILLER_11_257
*1201 FILLER_11_265
*1202 FILLER_11_273
*1203 FILLER_11_281
*1204 FILLER_11_289
*1205 FILLER_11_297
*1206 FILLER_11_299
*1207 FILLER_11_301
*1208 FILLER_11_309
*1209 FILLER_11_317
*1210 FILLER_11_325
*1211 FILLER_11_333
*1212 FILLER_11_341
*1213 FILLER_11_349
*1214 FILLER_11_357
*1215 FILLER_11_359
*1216 FILLER_11_361
*1217 FILLER_11_369
*1218 FILLER_11_377
*1219 FILLER_11_385
*1220 FILLER_11_389
*1221 FILLER_12_0
*1222 FILLER_12_8
*1223 FILLER_12_16
*1224 FILLER_12_24
*1225 FILLER_12_28
*1226 FILLER_12_31
*1227 FILLER_12_39
*1228 FILLER_12_47
*1229 FILLER_12_55
*1230 FILLER_12_63
*1231 FILLER_12_71
*1232 FILLER_12_79
*1233 FILLER_12_87
*1234 FILLER_12_89
*1235 FILLER_12_91
*1236 FILLER_12_99
*1237 FILLER_12_107
*1238 FILLER_12_115
*1239 FILLER_12_123
*1240 FILLER_12_131
*1241 FILLER_12_139
*1242 FILLER_12_147
*1243 FILLER_12_149
*1244 FILLER_12_151
*1245 FILLER_12_159
*1246 FILLER_12_167
*1247 FILLER_12_175
*1248 FILLER_12_183
*1249 FILLER_12_191
*1250 FILLER_12_199
*1251 FILLER_12_207
*1252 FILLER_12_209
*1253 FILLER_12_211
*1254 FILLER_12_219
*1255 FILLER_12_227
*1256 FILLER_12_235
*1257 FILLER_12_243
*1258 FILLER_12_251
*1259 FILLER_12_259
*1260 FILLER_12_267
*1261 FILLER_12_269
*1262 FILLER_12_271
*1263 FILLER_12_279
*1264 FILLER_12_287
*1265 FILLER_12_295
*1266 FILLER_12_303
*1267 FILLER_12_311
*1268 FILLER_12_319
*1269 FILLER_12_327
*1270 FILLER_12_329
*1271 FILLER_12_331
*1272 FILLER_12_339
*1273 FILLER_12_347
*1274 FILLER_12_355
*1275 FILLER_12_363
*1276 FILLER_12_371
*1277 FILLER_12_379
*1278 FILLER_12_387
*1279 FILLER_12_389
*1280 FILLER_13_0
*1281 FILLER_13_8
*1282 FILLER_13_16
*1283 FILLER_13_24
*1284 FILLER_13_32
*1285 FILLER_13_40
*1286 FILLER_13_48
*1287 FILLER_13_56
*1288 FILLER_13_61
*1289 FILLER_13_69
*1290 FILLER_13_77
*1291 FILLER_13_85
*1292 FILLER_13_93
*1293 FILLER_13_101
*1294 FILLER_13_109
*1295 FILLER_13_117
*1296 FILLER_13_119
*1297 FILLER_13_121
*1298 FILLER_13_129
*1299 FILLER_13_137
*1300 FILLER_13_145
*1301 FILLER_13_153
*1302 FILLER_13_161
*1303 FILLER_13_169
*1304 FILLER_13_177
*1305 FILLER_13_179
*1306 FILLER_13_181
*1307 FILLER_13_189
*1308 FILLER_13_197
*1309 FILLER_13_205
*1310 FILLER_13_213
*1311 FILLER_13_221
*1312 FILLER_13_229
*1313 FILLER_13_237
*1314 FILLER_13_239
*1315 FILLER_13_241
*1316 FILLER_13_249
*1317 FILLER_13_257
*1318 FILLER_13_265
*1319 FILLER_13_273
*1320 FILLER_13_281
*1321 FILLER_13_289
*1322 FILLER_13_297
*1323 FILLER_13_299
*1324 FILLER_13_301
*1325 FILLER_13_309
*1326 FILLER_13_317
*1327 FILLER_13_325
*1328 FILLER_13_333
*1329 FILLER_13_341
*1330 FILLER_13_349
*1331 FILLER_13_357
*1332 FILLER_13_359
*1333 FILLER_13_361
*1334 FILLER_13_369
*1335 FILLER_13_377
*1336 FILLER_13_385
*1337 FILLER_13_389
*1338 FILLER_14_0
*1339 FILLER_14_8
*1340 FILLER_14_16
*1341 FILLER_14_24
*1342 FILLER_14_28
*1343 FILLER_14_31
*1344 FILLER_14_39
*1345 FILLER_14_47
*1346 FILLER_14_55
*1347 FILLER_14_63
*1348 FILLER_14_71
*1349 FILLER_14_79
*1350 FILLER_14_87
*1351 FILLER_14_89
*1352 FILLER_14_91
*1353 FILLER_14_99
*1354 FILLER_14_107
*1355 FILLER_14_115
*1356 FILLER_14_123
*1357 FILLER_14_131
*1358 FILLER_14_139
*1359 FILLER_14_147
*1360 FILLER_14_149
*1361 FILLER_14_151
*1362 FILLER_14_159
*1363 FILLER_14_167
*1364 FILLER_14_175
*1365 FILLER_14_183
*1366 FILLER_14_191
*1367 FILLER_14_199
*1368 FILLER_14_207
*1369 FILLER_14_209
*1370 FILLER_14_211
*1371 FILLER_14_219
*1372 FILLER_14_227
*1373 FILLER_14_235
*1374 FILLER_14_243
*1375 FILLER_14_251
*1376 FILLER_14_259
*1377 FILLER_14_267
*1378 FILLER_14_269
*1379 FILLER_14_271
*1380 FILLER_14_279
*1381 FILLER_14_287
*1382 FILLER_14_295
*1383 FILLER_14_303
*1384 FILLER_14_311
*1385 FILLER_14_319
*1386 FILLER_14_327
*1387 FILLER_14_329
*1388 FILLER_14_331
*1389 FILLER_14_339
*1390 FILLER_14_347
*1391 FILLER_14_355
*1392 FILLER_14_363
*1393 FILLER_14_371
*1394 FILLER_14_379
*1395 FILLER_14_387
*1396 FILLER_14_389
*1397 FILLER_15_0
*1398 FILLER_15_8
*1399 FILLER_15_16
*1400 FILLER_15_24
*1401 FILLER_15_32
*1402 FILLER_15_40
*1403 FILLER_15_48
*1404 FILLER_15_56
*1405 FILLER_15_61
*1406 FILLER_15_69
*1407 FILLER_15_77
*1408 FILLER_15_85
*1409 FILLER_15_93
*1410 FILLER_15_101
*1411 FILLER_15_109
*1412 FILLER_15_117
*1413 FILLER_15_119
*1414 FILLER_15_121
*1415 FILLER_15_129
*1416 FILLER_15_137
*1417 FILLER_15_145
*1418 FILLER_15_153
*1419 FILLER_15_161
*1420 FILLER_15_169
*1421 FILLER_15_177
*1422 FILLER_15_179