*SPEF "ieee 1481-1999"
*DESIGN "sum_stage"
*DATE "23:51:21 Tuesday April 21, 2026"
*VENDOR "The OpenROAD Project"
*PROGRAM "OpenROAD"
*VERSION "26Q2-209-g0d9d73ffba"
*DESIGN_FLOW "NAME_SCOPE LOCAL" "PIN_CAP NONE"
*DIVIDER /
*DELIMITER :
*BUS_DELIMITER []
*T_UNIT 1 NS
*C_UNIT 1 PF
*R_UNIT 1 OHM
*L_UNIT 1 HENRY

*NAME_MAP
*1 _00_
*2 _01_
*3 _02_
*4 _03_
*5 _04_
*6 _05_
*7 _06_
*8 _07_
*9 _08_
*10 _09_
*11 _10_
*12 _11_
*13 _12_
*14 _13_
*15 _14_
*16 _15_
*17 _16_
*18 _17_
*19 _18_
*20 _19_
*21 _20_
*22 _21_
*23 _22_
*24 _23_
*25 _24_
*26 _25_
*27 _26_
*28 _27_
*29 _28_
*30 _29_
*31 _30_
*32 _31_
*33 _32_
*34 _33_
*35 _34_
*36 _35_
*37 _36_
*38 _37_
*39 _38_
*40 _39_
*41 _40_
*42 _41_
*43 _42_
*44 _43_
*45 _44_
*46 _45_
*47 _46_
*48 net1
*49 net2
*50 net3
*51 net4
*52 net5
*53 net6
*54 net7
*55 net8
*56 net9
*57 net10
*58 net11
*59 net12
*60 net13
*61 net14
*62 net15
*63 net16
*64 clk
*65 net17
*66 net18
*67 net19
*68 net20
*69 net21
*70 net22
*71 net23
*72 net24
*73 net25
*74 net26
*75 net27
*76 net28
*79 a[0]
*80 a[1]
*81 a[2]
*82 a[3]
*83 a[4]
*84 a[5]
*85 a[6]
*86 a[7]
*87 b[0]
*88 b[1]
*89 b[2]
*90 b[3]
*91 b[4]
*92 b[5]
*93 b[6]
*94 b[7]
*95 in_valid
*96 rst_n
*97 sum_out[0]
*98 sum_out[1]
*99 sum_out[2]
*100 sum_out[3]
*101 sum_out[4]
*102 sum_out[5]
*103 sum_out[6]
*104 sum_out[7]
*105 sum_out[8]
*106 valid
*107 clknet_0_clk
*108 clknet_1_0__leaf_clk
*109 clknet_1_1__leaf_clk
*110 _47_
*111 _48_
*112 _49_
*113 _50_
*114 _51_
*115 _52_
*116 _53_
*117 _54_
*118 _55_
*119 _56_
*120 _57_
*121 _58_
*122 _59_
*123 _60_
*124 _61_
*125 _62_
*126 _63_
*127 _64_
*128 _65_
*129 _66_
*130 _67_
*131 _68_
*132 _69_
*133 _70_
*134 _71_
*135 _72_
*136 _73_
*137 _74_
*138 _75_
*139 _76_
*140 _77_
*141 _78_
*142 _79_
*143 _80_
*144 _81_
*145 _82_
*146 _83_
*147 _84_
*148 sum_out\[0\]\$_DFF_PN0_
*149 sum_out\[1\]\$_DFF_PN0_
*150 sum_out\[2\]\$_DFF_PN0_
*151 sum_out\[3\]\$_DFF_PN0_
*152 sum_out\[4\]\$_DFF_PN0_
*153 sum_out\[5\]\$_DFF_PN0_
*154 sum_out\[6\]\$_DFF_PN0_
*155 sum_out\[7\]\$_DFF_PN0_
*156 sum_out\[8\]\$_DFF_PN0_
*157 valid\$_DFF_PN0_
*158 TAP_TAPCELL_ROW_0_0
*159 TAP_TAPCELL_ROW_0_1
*160 TAP_TAPCELL_ROW_0_2
*161 TAP_TAPCELL_ROW_0_3
*162 TAP_TAPCELL_ROW_0_4
*163 TAP_TAPCELL_ROW_0_5
*164 TAP_TAPCELL_ROW_0_6
*165 TAP_TAPCELL_ROW_0_7
*166 TAP_TAPCELL_ROW_0_8
*167 TAP_TAPCELL_ROW_0_9
*168 TAP_TAPCELL_ROW_0_10
*169 TAP_TAPCELL_ROW_0_11
*170 TAP_TAPCELL_ROW_0_12
*171 TAP_TAPCELL_ROW_1_13
*172 TAP_TAPCELL_ROW_1_14
*173 TAP_TAPCELL_ROW_1_15
*174 TAP_TAPCELL_ROW_1_16
*175 TAP_TAPCELL_ROW_1_17
*176 TAP_TAPCELL_ROW_1_18
*177 TAP_TAPCELL_ROW_2_19
*178 TAP_TAPCELL_ROW_2_20
*179 TAP_TAPCELL_ROW_2_21
*180 TAP_TAPCELL_ROW_2_22
*181 TAP_TAPCELL_ROW_2_23
*182 TAP_TAPCELL_ROW_2_24
*183 TAP_TAPCELL_ROW_2_25
*184 TAP_TAPCELL_ROW_3_26
*185 TAP_TAPCELL_ROW_3_27
*186 TAP_TAPCELL_ROW_3_28
*187 TAP_TAPCELL_ROW_3_29
*188 TAP_TAPCELL_ROW_3_30
*189 TAP_TAPCELL_ROW_3_31
*190 TAP_TAPCELL_ROW_4_32
*191 TAP_TAPCELL_ROW_4_33
*192 TAP_TAPCELL_ROW_4_34
*193 TAP_TAPCELL_ROW_4_35
*194 TAP_TAPCELL_ROW_4_36
*195 TAP_TAPCELL_ROW_4_37
*196 TAP_TAPCELL_ROW_4_38
*197 TAP_TAPCELL_ROW_5_39
*198 TAP_TAPCELL_ROW_5_40
*199 TAP_TAPCELL_ROW_5_41
*200 TAP_TAPCELL_ROW_5_42
*201 TAP_TAPCELL_ROW_5_43
*202 TAP_TAPCELL_ROW_5_44
*203 TAP_TAPCELL_ROW_6_45
*204 TAP_TAPCELL_ROW_6_46
*205 TAP_TAPCELL_ROW_6_47
*206 TAP_TAPCELL_ROW_6_48
*207 TAP_TAPCELL_ROW_6_49
*208 TAP_TAPCELL_ROW_6_50
*209 TAP_TAPCELL_ROW_6_51
*210 TAP_TAPCELL_ROW_7_52
*211 TAP_TAPCELL_ROW_7_53
*212 TAP_TAPCELL_ROW_7_54
*213 TAP_TAPCELL_ROW_7_55
*214 TAP_TAPCELL_ROW_7_56
*215 TAP_TAPCELL_ROW_7_57
*216 TAP_TAPCELL_ROW_8_58
*217 TAP_TAPCELL_ROW_8_59
*218 TAP_TAPCELL_ROW_8_60
*219 TAP_TAPCELL_ROW_8_61
*220 TAP_TAPCELL_ROW_8_62
*221 TAP_TAPCELL_ROW_8_63
*222 TAP_TAPCELL_ROW_8_64
*223 TAP_TAPCELL_ROW_9_65
*224 TAP_TAPCELL_ROW_9_66
*225 TAP_TAPCELL_ROW_9_67
*226 TAP_TAPCELL_ROW_9_68
*227 TAP_TAPCELL_ROW_9_69
*228 TAP_TAPCELL_ROW_9_70
*229 TAP_TAPCELL_ROW_10_71
*230 TAP_TAPCELL_ROW_10_72
*231 TAP_TAPCELL_ROW_10_73
*232 TAP_TAPCELL_ROW_10_74
*233 TAP_TAPCELL_ROW_10_75
*234 TAP_TAPCELL_ROW_10_76
*235 TAP_TAPCELL_ROW_10_77
*236 TAP_TAPCELL_ROW_11_78
*237 TAP_TAPCELL_ROW_11_79
*238 TAP_TAPCELL_ROW_11_80
*239 TAP_TAPCELL_ROW_11_81
*240 TAP_TAPCELL_ROW_11_82
*241 TAP_TAPCELL_ROW_11_83
*242 TAP_TAPCELL_ROW_12_84
*243 TAP_TAPCELL_ROW_12_85
*244 TAP_TAPCELL_ROW_12_86
*245 TAP_TAPCELL_ROW_12_87
*246 TAP_TAPCELL_ROW_12_88
*247 TAP_TAPCELL_ROW_12_89
*248 TAP_TAPCELL_ROW_12_90
*249 TAP_TAPCELL_ROW_13_91
*250 TAP_TAPCELL_ROW_13_92
*251 TAP_TAPCELL_ROW_13_93
*252 TAP_TAPCELL_ROW_13_94
*253 TAP_TAPCELL_ROW_13_95
*254 TAP_TAPCELL_ROW_13_96
*255 TAP_TAPCELL_ROW_14_97
*256 TAP_TAPCELL_ROW_14_98
*257 TAP_TAPCELL_ROW_14_99
*258 TAP_TAPCELL_ROW_14_100
*259 TAP_TAPCELL_ROW_14_101
*260 TAP_TAPCELL_ROW_14_102
*261 TAP_TAPCELL_ROW_14_103
*262 TAP_TAPCELL_ROW_15_104
*263 TAP_TAPCELL_ROW_15_105
*264 TAP_TAPCELL_ROW_15_106
*265 TAP_TAPCELL_ROW_15_107
*266 TAP_TAPCELL_ROW_15_108
*267 TAP_TAPCELL_ROW_15_109
*268 TAP_TAPCELL_ROW_16_110
*269 TAP_TAPCELL_ROW_16_111
*270 TAP_TAPCELL_ROW_16_112
*271 TAP_TAPCELL_ROW_16_113
*272 TAP_TAPCELL_ROW_16_114
*273 TAP_TAPCELL_ROW_16_115
*274 TAP_TAPCELL_ROW_16_116
*275 TAP_TAPCELL_ROW_17_117
*276 TAP_TAPCELL_ROW_17_118
*277 TAP_TAPCELL_ROW_17_119
*278 TAP_TAPCELL_ROW_17_120
*279 TAP_TAPCELL_ROW_17_121
*280 TAP_TAPCELL_ROW_17_122
*281 TAP_TAPCELL_ROW_18_123
*282 TAP_TAPCELL_ROW_18_124
*283 TAP_TAPCELL_ROW_18_125
*284 TAP_TAPCELL_ROW_18_126
*285 TAP_TAPCELL_ROW_18_127
*286 TAP_TAPCELL_ROW_18_128
*287 TAP_TAPCELL_ROW_18_129
*288 TAP_TAPCELL_ROW_19_130
*289 TAP_TAPCELL_ROW_19_131
*290 TAP_TAPCELL_ROW_19_132
*291 TAP_TAPCELL_ROW_19_133
*292 TAP_TAPCELL_ROW_19_134
*293 TAP_TAPCELL_ROW_19_135
*294 TAP_TAPCELL_ROW_20_136
*295 TAP_TAPCELL_ROW_20_137
*296 TAP_TAPCELL_ROW_20_138
*297 TAP_TAPCELL_ROW_20_139
*298 TAP_TAPCELL_ROW_20_140
*299 TAP_TAPCELL_ROW_20_141
*300 TAP_TAPCELL_ROW_20_142
*301 TAP_TAPCELL_ROW_21_143
*302 TAP_TAPCELL_ROW_21_144
*303 TAP_TAPCELL_ROW_21_145
*304 TAP_TAPCELL_ROW_21_146
*305 TAP_TAPCELL_ROW_21_147
*306 TAP_TAPCELL_ROW_21_148
*307 TAP_TAPCELL_ROW_22_149
*308 TAP_TAPCELL_ROW_22_150
*309 TAP_TAPCELL_ROW_22_151
*310 TAP_TAPCELL_ROW_22_152
*311 TAP_TAPCELL_ROW_22_153
*312 TAP_TAPCELL_ROW_22_154
*313 TAP_TAPCELL_ROW_22_155
*314 TAP_TAPCELL_ROW_23_156
*315 TAP_TAPCELL_ROW_23_157
*316 TAP_TAPCELL_ROW_23_158
*317 TAP_TAPCELL_ROW_23_159
*318 TAP_TAPCELL_ROW_23_160
*319 TAP_TAPCELL_ROW_23_161
*320 TAP_TAPCELL_ROW_24_162
*321 TAP_TAPCELL_ROW_24_163
*322 TAP_TAPCELL_ROW_24_164
*323 TAP_TAPCELL_ROW_24_165
*324 TAP_TAPCELL_ROW_24_166
*325 TAP_TAPCELL_ROW_24_167
*326 TAP_TAPCELL_ROW_24_168
*327 TAP_TAPCELL_ROW_25_169
*328 TAP_TAPCELL_ROW_25_170
*329 TAP_TAPCELL_ROW_25_171
*330 TAP_TAPCELL_ROW_25_172
*331 TAP_TAPCELL_ROW_25_173
*332 TAP_TAPCELL_ROW_25_174
*333 TAP_TAPCELL_ROW_26_175
*334 TAP_TAPCELL_ROW_26_176
*335 TAP_TAPCELL_ROW_26_177
*336 TAP_TAPCELL_ROW_26_178
*337 TAP_TAPCELL_ROW_26_179
*338 TAP_TAPCELL_ROW_26_180
*339 TAP_TAPCELL_ROW_26_181
*340 TAP_TAPCELL_ROW_27_182
*341 TAP_TAPCELL_ROW_27_183
*342 TAP_TAPCELL_ROW_27_184
*343 TAP_TAPCELL_ROW_27_185
*344 TAP_TAPCELL_ROW_27_186
*345 TAP_TAPCELL_ROW_27_187
*346 TAP_TAPCELL_ROW_28_188
*347 TAP_TAPCELL_ROW_28_189
*348 TAP_TAPCELL_ROW_28_190
*349 TAP_TAPCELL_ROW_28_191
*350 TAP_TAPCELL_ROW_28_192
*351 TAP_TAPCELL_ROW_28_193
*352 TAP_TAPCELL_ROW_28_194
*353 TAP_TAPCELL_ROW_29_195
*354 TAP_TAPCELL_ROW_29_196
*355 TAP_TAPCELL_ROW_29_197
*356 TAP_TAPCELL_ROW_29_198
*357 TAP_TAPCELL_ROW_29_199
*358 TAP_TAPCELL_ROW_29_200
*359 TAP_TAPCELL_ROW_30_201
*360 TAP_TAPCELL_ROW_30_202
*361 TAP_TAPCELL_ROW_30_203
*362 TAP_TAPCELL_ROW_30_204
*363 TAP_TAPCELL_ROW_30_205
*364 TAP_TAPCELL_ROW_30_206
*365 TAP_TAPCELL_ROW_30_207
*366 TAP_TAPCELL_ROW_31_208
*367 TAP_TAPCELL_ROW_31_209
*368 TAP_TAPCELL_ROW_31_210
*369 TAP_TAPCELL_ROW_31_211
*370 TAP_TAPCELL_ROW_31_212
*371 TAP_TAPCELL_ROW_31_213
*372 TAP_TAPCELL_ROW_32_214
*373 TAP_TAPCELL_ROW_32_215
*374 TAP_TAPCELL_ROW_32_216
*375 TAP_TAPCELL_ROW_32_217
*376 TAP_TAPCELL_ROW_32_218
*377 TAP_TAPCELL_ROW_32_219
*378 TAP_TAPCELL_ROW_32_220
*379 TAP_TAPCELL_ROW_33_221
*380 TAP_TAPCELL_ROW_33_222
*381 TAP_TAPCELL_ROW_33_223
*382 TAP_TAPCELL_ROW_33_224
*383 TAP_TAPCELL_ROW_33_225
*384 TAP_TAPCELL_ROW_33_226
*385 TAP_TAPCELL_ROW_34_227
*386 TAP_TAPCELL_ROW_34_228
*387 TAP_TAPCELL_ROW_34_229
*388 TAP_TAPCELL_ROW_34_230
*389 TAP_TAPCELL_ROW_34_231
*390 TAP_TAPCELL_ROW_34_232
*391 TAP_TAPCELL_ROW_34_233
*392 TAP_TAPCELL_ROW_35_234
*393 TAP_TAPCELL_ROW_35_235
*394 TAP_TAPCELL_ROW_35_236
*395 TAP_TAPCELL_ROW_35_237
*396 TAP_TAPCELL_ROW_35_238
*397 TAP_TAPCELL_ROW_35_239
*398 TAP_TAPCELL_ROW_36_240
*399 TAP_TAPCELL_ROW_36_241
*400 TAP_TAPCELL_ROW_36_242
*401 TAP_TAPCELL_ROW_36_243
*402 TAP_TAPCELL_ROW_36_244
*403 TAP_TAPCELL_ROW_36_245
*404 TAP_TAPCELL_ROW_36_246
*405 TAP_TAPCELL_ROW_37_247
*406 TAP_TAPCELL_ROW_37_248
*407 TAP_TAPCELL_ROW_37_249
*408 TAP_TAPCELL_ROW_37_250
*409 TAP_TAPCELL_ROW_37_251
*410 TAP_TAPCELL_ROW_37_252
*411 TAP_TAPCELL_ROW_38_253
*412 TAP_TAPCELL_ROW_38_254
*413 TAP_TAPCELL_ROW_38_255
*414 TAP_TAPCELL_ROW_38_256
*415 TAP_TAPCELL_ROW_38_257
*416 TAP_TAPCELL_ROW_38_258
*417 TAP_TAPCELL_ROW_38_259
*418 TAP_TAPCELL_ROW_39_260
*419 TAP_TAPCELL_ROW_39_261
*420 TAP_TAPCELL_ROW_39_262
*421 TAP_TAPCELL_ROW_39_263
*422 TAP_TAPCELL_ROW_39_264
*423 TAP_TAPCELL_ROW_39_265
*424 TAP_TAPCELL_ROW_40_266
*425 TAP_TAPCELL_ROW_40_267
*426 TAP_TAPCELL_ROW_40_268
*427 TAP_TAPCELL_ROW_40_269
*428 TAP_TAPCELL_ROW_40_270
*429 TAP_TAPCELL_ROW_40_271
*430 TAP_TAPCELL_ROW_40_272
*431 TAP_TAPCELL_ROW_41_273
*432 TAP_TAPCELL_ROW_41_274
*433 TAP_TAPCELL_ROW_41_275
*434 TAP_TAPCELL_ROW_41_276
*435 TAP_TAPCELL_ROW_41_277
*436 TAP_TAPCELL_ROW_41_278
*437 TAP_TAPCELL_ROW_42_279
*438 TAP_TAPCELL_ROW_42_280
*439 TAP_TAPCELL_ROW_42_281
*440 TAP_TAPCELL_ROW_42_282
*441 TAP_TAPCELL_ROW_42_283
*442 TAP_TAPCELL_ROW_42_284
*443 TAP_TAPCELL_ROW_42_285
*444 TAP_TAPCELL_ROW_43_286
*445 TAP_TAPCELL_ROW_43_287
*446 TAP_TAPCELL_ROW_43_288
*447 TAP_TAPCELL_ROW_43_289
*448 TAP_TAPCELL_ROW_43_290
*449 TAP_TAPCELL_ROW_43_291
*450 TAP_TAPCELL_ROW_44_292
*451 TAP_TAPCELL_ROW_44_293
*452 TAP_TAPCELL_ROW_44_294
*453 TAP_TAPCELL_ROW_44_295
*454 TAP_TAPCELL_ROW_44_296
*455 TAP_TAPCELL_ROW_44_297
*456 TAP_TAPCELL_ROW_44_298
*457 TAP_TAPCELL_ROW_45_299
*458 TAP_TAPCELL_ROW_45_300
*459 TAP_TAPCELL_ROW_45_301
*460 TAP_TAPCELL_ROW_45_302
*461 TAP_TAPCELL_ROW_45_303
*462 TAP_TAPCELL_ROW_45_304
*463 TAP_TAPCELL_ROW_46_305
*464 TAP_TAPCELL_ROW_46_306
*465 TAP_TAPCELL_ROW_46_307
*466 TAP_TAPCELL_ROW_46_308
*467 TAP_TAPCELL_ROW_46_309
*468 TAP_TAPCELL_ROW_46_310
*469 TAP_TAPCELL_ROW_46_311
*470 TAP_TAPCELL_ROW_47_312
*471 TAP_TAPCELL_ROW_47_313
*472 TAP_TAPCELL_ROW_47_314
*473 TAP_TAPCELL_ROW_47_315
*474 TAP_TAPCELL_ROW_47_316
*475 TAP_TAPCELL_ROW_47_317
*476 TAP_TAPCELL_ROW_48_318
*477 TAP_TAPCELL_ROW_48_319
*478 TAP_TAPCELL_ROW_48_320
*479 TAP_TAPCELL_ROW_48_321
*480 TAP_TAPCELL_ROW_48_322
*481 TAP_TAPCELL_ROW_48_323
*482 TAP_TAPCELL_ROW_48_324
*483 TAP_TAPCELL_ROW_49_325
*484 TAP_TAPCELL_ROW_49_326
*485 TAP_TAPCELL_ROW_49_327
*486 TAP_TAPCELL_ROW_49_328
*487 TAP_TAPCELL_ROW_49_329
*488 TAP_TAPCELL_ROW_49_330
*489 TAP_TAPCELL_ROW_50_331
*490 TAP_TAPCELL_ROW_50_332
*491 TAP_TAPCELL_ROW_50_333
*492 TAP_TAPCELL_ROW_50_334
*493 TAP_TAPCELL_ROW_50_335
*494 TAP_TAPCELL_ROW_50_336
*495 TAP_TAPCELL_ROW_50_337
*496 TAP_TAPCELL_ROW_51_338
*497 TAP_TAPCELL_ROW_51_339
*498 TAP_TAPCELL_ROW_51_340
*499 TAP_TAPCELL_ROW_51_341
*500 TAP_TAPCELL_ROW_51_342
*501 TAP_TAPCELL_ROW_51_343
*502 TAP_TAPCELL_ROW_52_344
*503 TAP_TAPCELL_ROW_52_345
*504 TAP_TAPCELL_ROW_52_346
*505 TAP_TAPCELL_ROW_52_347
*506 TAP_TAPCELL_ROW_52_348
*507 TAP_TAPCELL_ROW_52_349
*508 TAP_TAPCELL_ROW_52_350
*509 TAP_TAPCELL_ROW_53_351
*510 TAP_TAPCELL_ROW_53_352
*511 TAP_TAPCELL_ROW_53_353
*512 TAP_TAPCELL_ROW_53_354
*513 TAP_TAPCELL_ROW_53_355
*514 TAP_TAPCELL_ROW_53_356
*515 TAP_TAPCELL_ROW_54_357
*516 TAP_TAPCELL_ROW_54_358
*517 TAP_TAPCELL_ROW_54_359
*518 TAP_TAPCELL_ROW_54_360
*519 TAP_TAPCELL_ROW_54_361
*520 TAP_TAPCELL_ROW_54_362
*521 TAP_TAPCELL_ROW_54_363
*522 TAP_TAPCELL_ROW_55_364
*523 TAP_TAPCELL_ROW_55_365
*524 TAP_TAPCELL_ROW_55_366
*525 TAP_TAPCELL_ROW_55_367
*526 TAP_TAPCELL_ROW_55_368
*527 TAP_TAPCELL_ROW_55_369
*528 TAP_TAPCELL_ROW_56_370
*529 TAP_TAPCELL_ROW_56_371
*530 TAP_TAPCELL_ROW_56_372
*531 TAP_TAPCELL_ROW_56_373
*532 TAP_TAPCELL_ROW_56_374
*533 TAP_TAPCELL_ROW_56_375
*534 TAP_TAPCELL_ROW_56_376
*535 TAP_TAPCELL_ROW_57_377
*536 TAP_TAPCELL_ROW_57_378
*537 TAP_TAPCELL_ROW_57_379
*538 TAP_TAPCELL_ROW_57_380
*539 TAP_TAPCELL_ROW_57_381
*540 TAP_TAPCELL_ROW_57_382
*541 TAP_TAPCELL_ROW_58_383
*542 TAP_TAPCELL_ROW_58_384
*543 TAP_TAPCELL_ROW_58_385
*544 TAP_TAPCELL_ROW_58_386
*545 TAP_TAPCELL_ROW_58_387
*546 TAP_TAPCELL_ROW_58_388
*547 TAP_TAPCELL_ROW_58_389
*548 TAP_TAPCELL_ROW_59_390
*549 TAP_TAPCELL_ROW_59_391
*550 TAP_TAPCELL_ROW_59_392
*551 TAP_TAPCELL_ROW_59_393
*552 TAP_TAPCELL_ROW_59_394
*553 TAP_TAPCELL_ROW_59_395
*554 TAP_TAPCELL_ROW_60_396
*555 TAP_TAPCELL_ROW_60_397
*556 TAP_TAPCELL_ROW_60_398
*557 TAP_TAPCELL_ROW_60_399
*558 TAP_TAPCELL_ROW_60_400
*559 TAP_TAPCELL_ROW_60_401
*560 TAP_TAPCELL_ROW_60_402
*561 TAP_TAPCELL_ROW_61_403
*562 TAP_TAPCELL_ROW_61_404
*563 TAP_TAPCELL_ROW_61_405
*564 TAP_TAPCELL_ROW_61_406
*565 TAP_TAPCELL_ROW_61_407
*566 TAP_TAPCELL_ROW_61_408
*567 TAP_TAPCELL_ROW_62_409
*568 TAP_TAPCELL_ROW_62_410
*569 TAP_TAPCELL_ROW_62_411
*570 TAP_TAPCELL_ROW_62_412
*571 TAP_TAPCELL_ROW_62_413
*572 TAP_TAPCELL_ROW_62_414
*573 TAP_TAPCELL_ROW_62_415
*574 TAP_TAPCELL_ROW_63_416
*575 TAP_TAPCELL_ROW_63_417
*576 TAP_TAPCELL_ROW_63_418
*577 TAP_TAPCELL_ROW_63_419
*578 TAP_TAPCELL_ROW_63_420
*579 TAP_TAPCELL_ROW_63_421
*580 TAP_TAPCELL_ROW_64_422
*581 TAP_TAPCELL_ROW_64_423
*582 TAP_TAPCELL_ROW_64_424
*583 TAP_TAPCELL_ROW_64_425
*584 TAP_TAPCELL_ROW_64_426
*585 TAP_TAPCELL_ROW_64_427
*586 TAP_TAPCELL_ROW_64_428
*587 TAP_TAPCELL_ROW_64_429
*588 TAP_TAPCELL_ROW_64_430
*589 TAP_TAPCELL_ROW_64_431
*590 TAP_TAPCELL_ROW_64_432
*591 TAP_TAPCELL_ROW_64_433
*592 TAP_TAPCELL_ROW_64_434
*593 input1
*594 input2
*595 input3
*596 input4
*597 input5
*598 input6
*599 input7
*600 input8
*601 input9
*602 input10
*603 input11
*604 input12
*605 input13
*606 input14
*607 input15
*608 input16
*609 input17
*610 input18
*611 output19
*612 output20
*613 output21
*614 output22
*615 output23
*616 output24
*617 output25
*618 output26
*619 output27
*620 output28
*621 clkbuf_0_clk
*622 clkbuf_1_0__f_clk
*623 clkbuf_1_1__f_clk
*624 ANTENNA_1
*625 ANTENNA_2
*626 FILLER_0_0
*627 FILLER_0_8
*628 FILLER_0_16
*629 FILLER_0_24
*630 FILLER_0_28
*631 FILLER_0_31
*632 FILLER_0_39
*633 FILLER_0_47
*634 FILLER_0_55
*635 FILLER_0_59
*636 FILLER_0_61
*637 FILLER_0_69
*638 FILLER_0_77
*639 FILLER_0_85
*640 FILLER_0_89
*641 FILLER_0_91
*642 FILLER_0_99
*643 FILLER_0_107
*644 FILLER_0_115
*645 FILLER_0_119
*646 FILLER_0_121
*647 FILLER_0_129
*648 FILLER_0_137
*649 FILLER_0_145
*650 FILLER_0_149
*651 FILLER_0_151
*652 FILLER_0_159
*653 FILLER_0_167
*654 FILLER_0_175
*655 FILLER_0_179
*656 FILLER_0_181
*657 FILLER_0_189
*658 FILLER_0_197
*659 FILLER_0_205
*660 FILLER_0_209
*661 FILLER_0_211
*662 FILLER_0_219
*663 FILLER_0_227
*664 FILLER_0_235
*665 FILLER_0_239
*666 FILLER_0_241
*667 FILLER_0_249
*668 FILLER_0_257
*669 FILLER_0_265
*670 FILLER_0_269
*671 FILLER_0_271
*672 FILLER_0_279
*673 FILLER_0_287
*674 FILLER_0_295
*675 FILLER_0_299
*676 FILLER_0_301
*677 FILLER_0_309
*678 FILLER_0_317
*679 FILLER_0_325
*680 FILLER_0_329
*681 FILLER_0_331
*682 FILLER_0_339
*683 FILLER_0_347
*684 FILLER_0_355
*685 FILLER_0_359
*686 FILLER_0_361
*687 FILLER_0_369
*688 FILLER_0_377
*689 FILLER_0_385
*690 FILLER_0_389
*691 FILLER_1_0
*692 FILLER_1_8
*693 FILLER_1_16
*694 FILLER_1_24
*695 FILLER_1_32
*696 FILLER_1_40
*697 FILLER_1_48
*698 FILLER_1_56
*699 FILLER_1_61
*700 FILLER_1_69
*701 FILLER_1_77
*702 FILLER_1_85
*703 FILLER_1_93
*704 FILLER_1_101
*705 FILLER_1_109
*706 FILLER_1_117
*707 FILLER_1_119
*708 FILLER_1_121
*709 FILLER_1_129
*710 FILLER_1_137
*711 FILLER_1_145
*712 FILLER_1_153
*713 FILLER_1_161
*714 FILLER_1_169
*715 FILLER_1_177
*716 FILLER_1_179
*717 FILLER_1_181
*718 FILLER_1_189
*719 FILLER_1_197
*720 FILLER_1_205
*721 FILLER_1_213
*722 FILLER_1_221
*723 FILLER_1_229
*724 FILLER_1_237
*725 FILLER_1_239
*726 FILLER_1_241
*727 FILLER_1_249
*728 FILLER_1_257
*729 FILLER_1_265
*730 FILLER_1_273
*731 FILLER_1_281
*732 FILLER_1_289
*733 FILLER_1_297
*734 FILLER_1_299
*735 FILLER_1_301
*736 FILLER_1_309
*737 FILLER_1_317
*738 FILLER_1_325
*739 FILLER_1_333
*740 FILLER_1_341
*741 FILLER_1_349
*742 FILLER_1_357
*743 FILLER_1_359
*744 FILLER_1_361
*745 FILLER_1_369
*746 FILLER_1_377
*747 FILLER_1_385
*748 FILLER_1_389
*749 FILLER_2_0
*750 FILLER_2_8
*751 FILLER_2_16
*752 FILLER_2_24
*753 FILLER_2_28
*754 FILLER_2_31
*755 FILLER_2_39
*756 FILLER_2_47
*757 FILLER_2_55
*758 FILLER_2_63
*759 FILLER_2_71
*760 FILLER_2_79
*761 FILLER_2_87
*762 FILLER_2_89
*763 FILLER_2_91
*764 FILLER_2_99
*765 FILLER_2_107
*766 FILLER_2_115
*767 FILLER_2_123
*768 FILLER_2_131
*769 FILLER_2_139
*770 FILLER_2_147
*771 FILLER_2_149
*772 FILLER_2_151
*773 FILLER_2_159
*774 FILLER_2_167
*775 FILLER_2_175
*776 FILLER_2_183
*777 FILLER_2_191
*778 FILLER_2_199
*779 FILLER_2_207
*780 FILLER_2_209
*781 FILLER_2_211
*782 FILLER_2_219
*783 FILLER_2_227
*784 FILLER_2_235
*785 FILLER_2_243
*786 FILLER_2_251
*787 FILLER_2_259
*788 FILLER_2_267
*789 FILLER_2_269
*790 FILLER_2_271
*791 FILLER_2_279
*792 FILLER_2_287
*793 FILLER_2_295
*794 FILLER_2_303
*795 FILLER_2_311
*796 FILLER_2_319
*797 FILLER_2_327
*798 FILLER_2_329
*799 FILLER_2_331
*800 FILLER_2_339
*801 FILLER_2_347
*802 FILLER_2_355
*803 FILLER_2_363
*804 FILLER_2_371
*805 FILLER_2_379
*806 FILLER_2_387
*807 FILLER_2_389
*808 FILLER_3_0
*809 FILLER_3_8
*810 FILLER_3_16
*811 FILLER_3_24
*812 FILLER_3_32
*813 FILLER_3_40
*814 FILLER_3_48
*815 FILLER_3_56
*816 FILLER_3_61
*817 FILLER_3_69
*818 FILLER_3_77
*819 FILLER_3_85
*820 FILLER_3_93
*821 FILLER_3_101
*822 FILLER_3_109
*823 FILLER_3_117
*824 FILLER_3_119
*825 FILLER_3_121
*826 FILLER_3_129
*827 FILLER_3_137
*828 FILLER_3_145
*829 FILLER_3_153
*830 FILLER_3_161
*831 FILLER_3_169
*832 FILLER_3_177
*833 FILLER_3_179
*834 FILLER_3_181
*835 FILLER_3_189
*836 FILLER_3_197
*837 FILLER_3_205
*838 FILLER_3_213
*839 FILLER_3_221
*840 FILLER_3_229
*841 FILLER_3_237
*842 FILLER_3_239
*843 FILLER_3_241
*844 FILLER_3_249
*845 FILLER_3_257
*846 FILLER_3_265
*847 FILLER_3_273
*848 FILLER_3_281
*849 FILLER_3_289
*850 FILLER_3_297
*851 FILLER_3_299
*852 FILLER_3_301
*853 FILLER_3_309
*854 FILLER_3_317
*855 FILLER_3_325
*856 FILLER_3_333
*857 FILLER_3_341
*858 FILLER_3_349
*859 FILLER_3_357
*860 FILLER_3_359
*861 FILLER_3_361
*862 FILLER_3_369
*863 FILLER_3_377
*864 FILLER_3_385
*865 FILLER_3_389
*866 FILLER_4_0
*867 FILLER_4_8
*868 FILLER_4_16
*869 FILLER_4_24
*870 FILLER_4_28
*871 FILLER_4_31
*872 FILLER_4_39
*873 FILLER_4_47
*874 FILLER_4_55
*875 FILLER_4_63
*876 FILLER_4_71
*877 FILLER_4_79
*878 FILLER_4_87
*879 FILLER_4_89
*880 FILLER_4_91
*881 FILLER_4_99
*882 FILLER_4_107
*883 FILLER_4_115
*884 FILLER_4_123
*885 FILLER_4_131
*886 FILLER_4_139
*887 FILLER_4_147
*888 FILLER_4_149
*889 FILLER_4_151
*890 FILLER_4_159
*891 FILLER_4_167
*892 FILLER_4_175
*893 FILLER_4_183
*894 FILLER_4_191
*895 FILLER_4_199
*896 FILLER_4_207
*897 FILLER_4_209
*898 FILLER_4_211
*899 FILLER_4_219
*900 FILLER_4_227
*901 FILLER_4_235
*902 FILLER_4_243
*903 FILLER_4_251
*904 FILLER_4_259
*905 FILLER_4_267
*906 FILLER_4_269
*907 FILLER_4_271
*908 FILLER_4_279
*909 FILLER_4_287
*910 FILLER_4_295
*911 FILLER_4_303
*912 FILLER_4_311
*913 FILLER_4_319
*914 FILLER_4_327
*915 FILLER_4_329
*916 FILLER_4_331
*917 FILLER_4_339
*918 FILLER_4_347
*919 FILLER_4_355
*920 FILLER_4_363
*921 FILLER_4_371
*922 FILLER_4_379
*923 FILLER_4_387
*924 FILLER_4_389
*925 FILLER_5_0
*926 FILLER_5_8
*927 FILLER_5_16
*928 FILLER_5_24
*929 FILLER_5_32
*930 FILLER_5_40
*931 FILLER_5_48
*932 FILLER_5_56
*933 FILLER_5_61
*934 FILLER_5_69
*935 FILLER_5_77
*936 FILLER_5_85
*937 FILLER_5_93
*938 FILLER_5_101
*939 FILLER_5_109
*940 FILLER_5_117
*941 FILLER_5_119
*942 FILLER_5_121
*943 FILLER_5_129
*944 FILLER_5_137
*945 FILLER_5_145
*946 FILLER_5_153
*947 FILLER_5_161
*948 FILLER_5_169
*949 FILLER_5_177
*950 FILLER_5_179
*951 FILLER_5_181
*952 FILLER_5_189
*953 FILLER_5_197
*954 FILLER_5_205
*955 FILLER_5_213
*956 FILLER_5_221
*957 FILLER_5_229
*958 FILLER_5_237
*959 FILLER_5_239
*960 FILLER_5_241
*961 FILLER_5_249
*962 FILLER_5_257
*963 FILLER_5_265
*964 FILLER_5_273
*965 FILLER_5_281
*966 FILLER_5_289
*967 FILLER_5_297
*968 FILLER_5_299
*969 FILLER_5_301
*970 FILLER_5_309
*971 FILLER_5_317
*972 FILLER_5_325
*973 FILLER_5_333
*974 FILLER_5_341
*975 FILLER_5_349
*976 FILLER_5_357
*977 FILLER_5_359
*978 FILLER_5_361
*979 FILLER_5_369
*980 FILLER_5_377
*981 FILLER_5_385
*982 FILLER_5_389
*983 FILLER_6_0
*984 FILLER_6_8
*985 FILLER_6_16
*986 FILLER_6_24
*987 FILLER_6_28
*988 FILLER_6_31
*989 FILLER_6_39
*990 FILLER_6_47
*991 FILLER_6_55
*992 FILLER_6_63
*993 FILLER_6_71
*994 FILLER_6_79
*995 FILLER_6_87
*996 FILLER_6_89
*997 FILLER_6_91
*998 FILLER_6_99
*999 FILLER_6_107
*1000 FILLER_6_115
*1001 FILLER_6_123
*1002 FILLER_6_131
*1003 FILLER_6_139
*1004 FILLER_6_147
*1005 FILLER_6_149
*1006 FILLER_6_151
*1007 FILLER_6_159
*1008 FILLER_6_167
*1009 FILLER_6_175
*1010 FILLER_6_183
*1011 FILLER_6_191
*1012 FILLER_6_199
*1013 FILLER_6_207
*1014 FILLER_6_209
*1015 FILLER_6_211
*1016 FILLER_6_219
*1017 FILLER_6_227
*1018 FILLER_6_235
*1019 FILLER_6_243
*1020 FILLER_6_251
*1021 FILLER_6_259
*1022 FILLER_6_267
*1023 FILLER_6_269
*1024 FILLER_6_271
*1025 FILLER_6_279
*1026 FILLER_6_287
*1027 FILLER_6_295
*1028 FILLER_6_303
*1029 FILLER_6_311
*1030 FILLER_6_319
*1031 FILLER_6_327
*1032 FILLER_6_329
*1033 FILLER_6_331
*1034 FILLER_6_339
*1035 FILLER_6_347
*1036 FILLER_6_355
*1037 FILLER_6_363
*1038 FILLER_6_371
*1039 FILLER_6_379
*1040 FILLER_6_387
*1041 FILLER_6_389
*1042 FILLER_7_0
*1043 FILLER_7_8
*1044 FILLER_7_16
*1045 FILLER_7_24
*1046 FILLER_7_32
*1047 FILLER_7_40
*1048 FILLER_7_48
*1049 FILLER_7_56
*1050 FILLER_7_61
*1051 FILLER_7_69
*1052 FILLER_7_77
*1053 FILLER_7_85
*1054 FILLER_7_93
*1055 FILLER_7_101
*1056 FILLER_7_109
*1057 FILLER_7_117
*1058 FILLER_7_119
*1059 FILLER_7_121
*1060 FILLER_7_129
*1061 FILLER_7_137
*1062 FILLER_7_145
*1063 FILLER_7_153
*1064 FILLER_7_161
*1065 FILLER_7_169
*1066 FILLER_7_177
*1067 FILLER_7_179
*1068 FILLER_7_181
*1069 FILLER_7_189
*1070 FILLER_7_197
*1071 FILLER_7_205
*1072 FILLER_7_213
*1073 FILLER_7_221
*1074 FILLER_7_229
*1075 FILLER_7_237
*1076 FILLER_7_239
*1077 FILLER_7_241
*1078 FILLER_7_249
*1079 FILLER_7_257
*1080 FILLER_7_265
*1081 FILLER_7_273
*1082 FILLER_7_281
*1083 FILLER_7_289
*1084 FILLER_7_297
*1085 FILLER_7_299
*1086 FILLER_7_301
*1087 FILLER_7_309
*1088 FILLER_7_317
*1089 FILLER_7_325
*1090 FILLER_7_333
*1091 FILLER_7_341
*1092 FILLER_7_349
*1093 FILLER_7_357
*1094 FILLER_7_359
*1095 FILLER_7_361
*1096 FILLER_7_369
*1097 FILLER_7_377
*1098 FILLER_7_385
*1099 FILLER_7_389
*1100 FILLER_8_0
*1101 FILLER_8_8
*1102 FILLER_8_16
*1103 FILLER_8_24
*1104 FILLER_8_28
*1105 FILLER_8_31
*1106 FILLER_8_39
*1107 FILLER_8_47
*1108 FILLER_8_55
*1109 FILLER_8_63
*1110 FILLER_8_71
*1111 FILLER_8_79
*1112 FILLER_8_87
*1113 FILLER_8_89
*1114 FILLER_8_91
*1115 FILLER_8_99
*1116 FILLER_8_107
*1117 FILLER_8_115
*1118 FILLER_8_123
*1119 FILLER_8_131
*1120 FILLER_8_139
*1121 FILLER_8_147
*1122 FILLER_8_149
*1123 FILLER_8_151
*1124 FILLER_8_159
*1125 FILLER_8_167
*1126 FILLER_8_175
*1127 FILLER_8_183
*1128 FILLER_8_191
*1129 FILLER_8_199
*1130 FILLER_8_207
*1131 FILLER_8_209
*1132 FILLER_8_211
*1133 FILLER_8_219
*1134 FILLER_8_227
*1135 FILLER_8_235
*1136 FILLER_8_243
*1137 FILLER_8_251
*1138 FILLER_8_259
*1139 FILLER_8_267
*1140 FILLER_8_269
*1141 FILLER_8_271
*1142 FILLER_8_279
*1143 FILLER_8_287
*1144 FILLER_8_295
*1145 FILLER_8_303
*1146 FILLER_8_311
*1147 FILLER_8_319
*1148 FILLER_8_327
*1149 FILLER_8_329
*1150 FILLER_8_331
*1151 FILLER_8_339
*1152 FILLER_8_347
*1153 FILLER_8_355
*1154 FILLER_8_363
*1155 FILLER_8_371
*1156 FILLER_8_379
*1157 FILLER_8_387
*1158 FILLER_8_389
*1159 FILLER_9_0
*1160 FILLER_9_8
*1161 FILLER_9_16
*1162 FILLER_9_24
*1163 FILLER_9_32
*1164 FILLER_9_40
*1165 FILLER_9_48
*1166 FILLER_9_56
*1167 FILLER_9_61
*1168 FILLER_9_69
*1169 FILLER_9_77
*1170 FILLER_9_85
*1171 FILLER_9_93
*1172 FILLER_9_101
*1173 FILLER_9_109
*1174 FILLER_9_117
*1175 FILLER_9_119
*1176 FILLER_9_121
*1177 FILLER_9_129
*1178 FILLER_9_137
*1179 FILLER_9_145
*1180 FILLER_9_153
*1181 FILLER_9_161
*1182 FILLER_9_169
*1183 FILLER_9_177
*1184 FILLER_9_179
*1185 FILLER_9_181
*1186 FILLER_9_189
*1187 FILLER_9_197
*1188 FILLER_9_205
*1189 FILLER_9_213
*1190 FILLER_9_221
*1191 FILLER_9_229
*1192 FILLER_9_237
*1193 FILLER_9_239
*1194 FILLER_9_241
*1195 FILLER_9_249
*1196 FILLER_9_257
*1197 FILLER_9_265
*1198 FILLER_9_273
*1199 FILLER_9_281
*1200 FILLER_9_289
*1201 FILLER_9_297
*1202 FILLER_9_299
*1203 FILLER_9_301
*1204 FILLER_9_309
*1205 FILLER_9_317
*1206 FILLER_9_325
*1207 FILLER_9_333
*1208 FILLER_9_341
*1209 FILLER_9_349
*1210 FILLER_9_357
*1211 FILLER_9_359
*1212 FILLER_9_361
*1213 FILLER_9_369
*1214 FILLER_9_377
*1215 FILLER_9_385
*1216 FILLER_9_389
*1217 FILLER_10_0
*1218 FILLER_10_8
*1219 FILLER_10_16
*1220 FILLER_10_24
*1221 FILLER_10_28
*1222 FILLER_10_31
*1223 FILLER_10_39
*1224 FILLER_10_47
*1225 FILLER_10_55
*1226 FILLER_10_63
*1227 FILLER_10_71
*1228 FILLER_10_79
*1229 FILLER_10_87
*1230 FILLER_10_89
*1231 FILLER_10_91
*1232 FILLER_10_99
*1233 FILLER_10_107
*1234 FILLER_10_115
*1235 FILLER_10_123
*1236 FILLER_10_131
*1237 FILLER_10_139
*1238 FILLER_10_147
*1239 FILLER_10_149
*1240 FILLER_10_151
*1241 FILLER_10_159
*1242 FILLER_10_167
*1243 FILLER_10_175
*1244 FILLER_10_183
*1245 FILLER_10_191
*1246 FILLER_10_199
*1247 FILLER_10_207
*1248 FILLER_10_209
*1249 FILLER_10_211
*1250 FILLER_10_219
*1251 FILLER_10_227
*1252 FILLER_10_235
*1253 FILLER_10_243
*1254 FILLER_10_251
*1255 FILLER_10_259
*1256 FILLER_10_267
*1257 FILLER_10_269
*1258 FILLER_10_271
*1259 FILLER_10_279
*1260 FILLER_10_287
*1261 FILLER_10_295
*1262 FILLER_10_303
*1263 FILLER_10_311
*1264 FILLER_10_319
*1265 FILLER_10_327
*1266 FILLER_10_329
*1267 FILLER_10_331
*1268 FILLER_10_339
*1269 FILLER_10_347
*1270 FILLER_10_355
*1271 FILLER_10_363
*1272 FILLER_10_371
*1273 FILLER_10_379
*1274 FILLER_10_387
*1275 FILLER_10_389
*1276 FILLER_11_0
*1277 FILLER_11_8
*1278 FILLER_11_16
*1279 FILLER_11_24
*1280 FILLER_11_32
*1281 FILLER_11_40
*1282 FILLER_11_48
*1283 FILLER_11_56
*1284 FILLER_11_61
*1285 FILLER_11_69
*1286 FILLER_11_77
*1287 FILLER_11_85
*1288 FILLER_11_93
*1289 FILLER_11_101
*1290 FILLER_11_109
*1291 FILLER_11_117
*1292 FILLER_11_119
*1293 FILLER_11_121
*1294 FILLER_11_129
*1295 FILLER_11_137
*1296 FILLER_11_145
*1297 FILLER_11_153
*1298 FILLER_11_161
*1299 FILLER_11_169
*1300 FILLER_11_177
*1301 FILLER_11_179
*1302 FILLER_11_181
*1303 FILLER_11_189
*1304 FILLER_11_197
*1305 FILLER_11_205
*1306 FILLER_11_213
*1307 FILLER_11_221
*1308 FILLER_11_229
*1309 FILLER_11_237
*1310 FILLER_11_239
*1311 FILLER_11_241
*1312 FILLER_11_249
*1313 FILLER_11_257
*1314 FILLER_11_265
*1315 FILLER_11_273
*1316 FILLER_11_281
*1317 FILLER_11_289
*1318 FILLER_11_297
*1319 FILLER_11_299
*1320 FILLER_11_301
*1321 FILLER_11_309
*1322 FILLER_11_317
*1323 FILLER_11_325
*1324 FILLER_11_333
*1325 FILLER_11_341
*1326 FILLER_11_349
*1327 FILLER_11_357
*1328 FILLER_11_359
*1329 FILLER_11_361
*1330 FILLER_11_369
*1331 FILLER_11_377
*1332 FILLER_11_385
*1333 FILLER_11_389
*1334 FILLER_12_0
*1335 FILLER_12_8
*1336 FILLER_12_16
*1337 FILLER_12_24
*1338 FILLER_12_28
*1339 FILLER_12_31
*1340 FILLER_12_39
*1341 FILLER_12_47
*1342 FILLER_12_55
*1343 FILLER_12_63
*1344 FILLER_12_71
*1345 FILLER_12_79
*1346 FILLER_12_87
*1347 FILLER_12_89
*1348 FILLER_12_91
*1349 FILLER_12_99
*1350 FILLER_12_107
*1351 FILLER_12_115
*1352 FILLER_12_123
*1353 FILLER_12_131
*1354 FILLER_12_139
*1355 FILLER_12_147
*1356 FILLER_12_149
*1357 FILLER_12_151
*1358 FILLER_12_159
*1359 FILLER_12_167
*1360 FILLER_12_175
*1361 FILLER_12_183
*1362 FILLER_12_191
*1363 FILLER_12_199
*1364 FILLER_12_207
*1365 FILLER_12_209
*1366 FILLER_12_211
*1367 FILLER_12_219
*1368 FILLER_12_227
*1369 FILLER_12_235
*1370 FILLER_12_243
*1371 FILLER_12_251
*1372 FILLER_12_259
*1373 FILLER_12_267
*1374 FILLER_12_269
*1375 FILLER_12_271
*1376 FILLER_12_279
*1377 FILLER_12_287
*1378 FILLER_12_295
*1379 FILLER_12_303
*1380 FILLER_12_311
*1381 FILLER_12_319
*1382 FILLER_12_327
*1383 FILLER_12_329
*1384 FILLER_12_331
*1385 FILLER_12_339
*1386 FILLER_12_347
*1387 FILLER_12_355
*1388 FILLER_12_363
*1389 FILLER_12_371
*1390 FILLER_12_379
*1391 FILLER_12_387
*1392 FILLER_12_389
*1393 FILLER_13_0
*1394 FILLER_13_8
*1395 FILLER_13_16
*1396 FILLER_13_24
*1397 FILLER_13_32
*1398 FILLER_13_40
*1399 FILLER_13_48
*1400 FILLER_13_56
*1401 FILLER_13_61
*1402 FILLER_13_69
*1403 FILLER_13_77
*1404 FILLER_13_85
*1405 FILLER_13_93
*1406 FILLER_13_101
*1407 FILLER_13_109
*1408 FILLER_13_117
*1409 FILLER_13_119
*1410 FILLER_13_121
*1411 FILLER_13_129
*1412 FILLER_13_137
*1413 FILLER_13_145
*1414 FILLER_13_153
*1415 FILLER_13_161
*1416 FILLER_13_169
*1417 FILLER_13_177
*1418 FILLER_13_179
*1419 FILLER_13_181
*1420 FILLER_13_189
*1421 FILLER_13_197
*1422 FILLER_13_205
*1423 FILLER_13_213
*1424 FILLER_13_221
*1425 FILLER_13_229
*1426 FILLER_13_237
*1427 FILLER_13_239
*1428 FILLER_13_241
*1429 FILLER_13_249
*1430 FILLER_13_257
*1431 FILLER_13_265
*1432 FILLER_13_273
*1433 FILLER_13_281
*1434 FILLER_13_289
*1435 FILLER_13_297
*1436 FILLER_13_299
*1437 FILLER_13_301
*1438 FILLER_13_309
*1439 FILLER_13_317
*1440 FILLER_13_325
*1441 FILLER_13_333
*1442 FILLER_13_341
*1443 FILLER_13_349
*1444 FILLER_13_357
*1445 FILLER_13_359
*1446 FILLER_13_361
*1447 FILLER_13_369
*1448 FILLER_13_377
*1449 FILLER_13_385
*1450 FILLER_13_389
*1451 FILLER_14_0
*1452 FILLER_14_8
*1453 FILLER_14_16
*1454 FILLER_14_24
*1455 FILLER_14_28
*1456 FILLER_14_31
*1457 FILLER_14_39
*1458 FILLER_14_47
*1459 FILLER_14_55