*SPEF "ieee 1481-1999"
*DESIGN "fp16_multiplier"
*DATE "23:21:03 Tuesday April 21, 2026"
*VENDOR "The OpenROAD Project"
*PROGRAM "OpenROAD"
*VERSION "26Q2-209-g0d9d73ffba"
*DESIGN_FLOW "NAME_SCOPE LOCAL" "PIN_CAP NONE"
*DIVIDER /
*DELIMITER :
*BUS_DELIMITER []
*T_UNIT 1 NS
*C_UNIT 1 PF
*R_UNIT 1 OHM
*L_UNIT 1 HENRY

*NAME_MAP
*2 a[0]
*3 a[10]
*4 a[11]
*5 a[12]
*6 a[13]
*7 a[14]
*8 a[15]
*9 a[1]
*10 a[2]
*11 a[3]
*12 a[4]
*13 a[5]
*14 a[6]
*15 a[7]
*16 a[8]
*17 a[9]
*18 b[0]
*19 b[10]
*20 b[11]
*21 b[12]
*22 b[13]
*23 b[14]
*24 b[15]
*25 b[1]
*26 b[2]
*27 b[3]
*28 b[4]
*29 b[5]
*30 b[6]
*31 b[7]
*32 b[8]
*33 b[9]
*34 result[0]
*35 result[10]
*36 result[11]
*37 result[12]
*38 result[13]
*39 result[14]
*40 result[15]
*41 result[1]
*42 result[2]
*43 result[3]
*44 result[4]
*45 result[5]
*46 result[6]
*47 result[7]
*48 result[8]
*49 result[9]
*50 TAP_TAPCELL_ROW_0_0
*51 FILLER_0_91
*52 FILLER_0_89
*53 FILLER_0_85
*54 FILLER_0_77
*55 FILLER_0_69
*56 FILLER_0_61
*57 FILLER_0_59
*58 FILLER_0_55
*59 FILLER_0_47
*60 FILLER_0_39
*61 FILLER_0_31
*62 FILLER_0_28
*63 FILLER_0_24
*64 FILLER_0_16
*65 FILLER_0_8
*66 FILLER_0_0
*67 _02__1
*68 _03__2
*69 _04__3
*70 _05__4
*71 _06__5
*72 _07__6
*73 _08__7
*74 _09__8
*75 _10__9
*76 _11__10
*77 _12__11
*78 _13__12
*79 _14__13
*80 _15__14
*81 _16__15
*82 _17__16
*83 TAP_TAPCELL_ROW_0_1
*84 TAP_TAPCELL_ROW_0_2
*85 TAP_TAPCELL_ROW_0_3
*86 TAP_TAPCELL_ROW_0_4
*87 TAP_TAPCELL_ROW_0_5
*88 TAP_TAPCELL_ROW_0_6
*89 TAP_TAPCELL_ROW_0_7
*90 TAP_TAPCELL_ROW_0_8
*91 TAP_TAPCELL_ROW_0_9
*92 TAP_TAPCELL_ROW_0_10
*93 TAP_TAPCELL_ROW_0_11
*94 TAP_TAPCELL_ROW_0_12
*95 TAP_TAPCELL_ROW_1_13
*96 TAP_TAPCELL_ROW_1_14
*97 TAP_TAPCELL_ROW_1_15
*98 TAP_TAPCELL_ROW_1_16
*99 TAP_TAPCELL_ROW_1_17
*100 TAP_TAPCELL_ROW_1_18
*101 TAP_TAPCELL_ROW_2_19
*102 TAP_TAPCELL_ROW_2_20
*103 TAP_TAPCELL_ROW_2_21
*104 TAP_TAPCELL_ROW_2_22
*105 TAP_TAPCELL_ROW_2_23
*106 TAP_TAPCELL_ROW_2_24
*107 TAP_TAPCELL_ROW_2_25
*108 TAP_TAPCELL_ROW_3_26
*109 TAP_TAPCELL_ROW_3_27
*110 TAP_TAPCELL_ROW_3_28
*111 TAP_TAPCELL_ROW_3_29
*112 TAP_TAPCELL_ROW_3_30
*113 TAP_TAPCELL_ROW_3_31
*114 TAP_TAPCELL_ROW_4_32
*115 TAP_TAPCELL_ROW_4_33
*116 TAP_TAPCELL_ROW_4_34
*117 TAP_TAPCELL_ROW_4_35
*118 TAP_TAPCELL_ROW_4_36
*119 TAP_TAPCELL_ROW_4_37
*120 TAP_TAPCELL_ROW_4_38
*121 TAP_TAPCELL_ROW_5_39
*122 TAP_TAPCELL_ROW_5_40
*123 TAP_TAPCELL_ROW_5_41
*124 TAP_TAPCELL_ROW_5_42
*125 TAP_TAPCELL_ROW_5_43
*126 TAP_TAPCELL_ROW_5_44
*127 TAP_TAPCELL_ROW_6_45
*128 TAP_TAPCELL_ROW_6_46
*129 TAP_TAPCELL_ROW_6_47
*130 TAP_TAPCELL_ROW_6_48
*131 TAP_TAPCELL_ROW_6_49
*132 TAP_TAPCELL_ROW_6_50
*133 TAP_TAPCELL_ROW_6_51
*134 TAP_TAPCELL_ROW_7_52
*135 TAP_TAPCELL_ROW_7_53
*136 TAP_TAPCELL_ROW_7_54
*137 TAP_TAPCELL_ROW_7_55
*138 TAP_TAPCELL_ROW_7_56
*139 TAP_TAPCELL_ROW_7_57
*140 TAP_TAPCELL_ROW_8_58
*141 TAP_TAPCELL_ROW_8_59
*142 TAP_TAPCELL_ROW_8_60
*143 TAP_TAPCELL_ROW_8_61
*144 TAP_TAPCELL_ROW_8_62
*145 TAP_TAPCELL_ROW_8_63
*146 TAP_TAPCELL_ROW_8_64
*147 TAP_TAPCELL_ROW_9_65
*148 TAP_TAPCELL_ROW_9_66
*149 TAP_TAPCELL_ROW_9_67
*150 TAP_TAPCELL_ROW_9_68
*151 TAP_TAPCELL_ROW_9_69
*152 TAP_TAPCELL_ROW_9_70
*153 TAP_TAPCELL_ROW_10_71
*154 TAP_TAPCELL_ROW_10_72
*155 TAP_TAPCELL_ROW_10_73
*156 TAP_TAPCELL_ROW_10_74
*157 TAP_TAPCELL_ROW_10_75
*158 TAP_TAPCELL_ROW_10_76
*159 TAP_TAPCELL_ROW_10_77
*160 TAP_TAPCELL_ROW_11_78
*161 TAP_TAPCELL_ROW_11_79
*162 TAP_TAPCELL_ROW_11_80
*163 TAP_TAPCELL_ROW_11_81
*164 TAP_TAPCELL_ROW_11_82
*165 TAP_TAPCELL_ROW_11_83
*166 TAP_TAPCELL_ROW_12_84
*167 TAP_TAPCELL_ROW_12_85
*168 TAP_TAPCELL_ROW_12_86
*169 TAP_TAPCELL_ROW_12_87
*170 TAP_TAPCELL_ROW_12_88
*171 TAP_TAPCELL_ROW_12_89
*172 TAP_TAPCELL_ROW_12_90
*173 TAP_TAPCELL_ROW_13_91
*174 TAP_TAPCELL_ROW_13_92
*175 TAP_TAPCELL_ROW_13_93
*176 TAP_TAPCELL_ROW_13_94
*177 TAP_TAPCELL_ROW_13_95
*178 TAP_TAPCELL_ROW_13_96
*179 TAP_TAPCELL_ROW_14_97
*180 TAP_TAPCELL_ROW_14_98
*181 TAP_TAPCELL_ROW_14_99
*182 TAP_TAPCELL_ROW_14_100
*183 TAP_TAPCELL_ROW_14_101
*184 TAP_TAPCELL_ROW_14_102
*185 TAP_TAPCELL_ROW_14_103
*186 TAP_TAPCELL_ROW_15_104
*187 TAP_TAPCELL_ROW_15_105
*188 TAP_TAPCELL_ROW_15_106
*189 TAP_TAPCELL_ROW_15_107
*190 TAP_TAPCELL_ROW_15_108
*191 TAP_TAPCELL_ROW_15_109
*192 TAP_TAPCELL_ROW_16_110
*193 TAP_TAPCELL_ROW_16_111
*194 TAP_TAPCELL_ROW_16_112
*195 TAP_TAPCELL_ROW_16_113
*196 TAP_TAPCELL_ROW_16_114
*197 TAP_TAPCELL_ROW_16_115
*198 TAP_TAPCELL_ROW_16_116
*199 TAP_TAPCELL_ROW_17_117
*200 TAP_TAPCELL_ROW_17_118
*201 TAP_TAPCELL_ROW_17_119
*202 TAP_TAPCELL_ROW_17_120
*203 TAP_TAPCELL_ROW_17_121
*204 TAP_TAPCELL_ROW_17_122
*205 TAP_TAPCELL_ROW_18_123
*206 TAP_TAPCELL_ROW_18_124
*207 TAP_TAPCELL_ROW_18_125
*208 TAP_TAPCELL_ROW_18_126
*209 TAP_TAPCELL_ROW_18_127
*210 TAP_TAPCELL_ROW_18_128
*211 TAP_TAPCELL_ROW_18_129
*212 TAP_TAPCELL_ROW_19_130
*213 TAP_TAPCELL_ROW_19_131
*214 TAP_TAPCELL_ROW_19_132
*215 TAP_TAPCELL_ROW_19_133
*216 TAP_TAPCELL_ROW_19_134
*217 TAP_TAPCELL_ROW_19_135
*218 TAP_TAPCELL_ROW_20_136
*219 TAP_TAPCELL_ROW_20_137
*220 TAP_TAPCELL_ROW_20_138
*221 TAP_TAPCELL_ROW_20_139
*222 TAP_TAPCELL_ROW_20_140
*223 TAP_TAPCELL_ROW_20_141
*224 TAP_TAPCELL_ROW_20_142
*225 TAP_TAPCELL_ROW_21_143
*226 TAP_TAPCELL_ROW_21_144
*227 TAP_TAPCELL_ROW_21_145
*228 TAP_TAPCELL_ROW_21_146
*229 TAP_TAPCELL_ROW_21_147
*230 TAP_TAPCELL_ROW_21_148
*231 TAP_TAPCELL_ROW_22_149
*232 TAP_TAPCELL_ROW_22_150
*233 TAP_TAPCELL_ROW_22_151
*234 TAP_TAPCELL_ROW_22_152
*235 TAP_TAPCELL_ROW_22_153
*236 TAP_TAPCELL_ROW_22_154
*237 TAP_TAPCELL_ROW_22_155
*238 TAP_TAPCELL_ROW_23_156
*239 TAP_TAPCELL_ROW_23_157
*240 TAP_TAPCELL_ROW_23_158
*241 TAP_TAPCELL_ROW_23_159
*242 TAP_TAPCELL_ROW_23_160
*243 TAP_TAPCELL_ROW_23_161
*244 TAP_TAPCELL_ROW_24_162
*245 TAP_TAPCELL_ROW_24_163
*246 TAP_TAPCELL_ROW_24_164
*247 TAP_TAPCELL_ROW_24_165
*248 TAP_TAPCELL_ROW_24_166
*249 TAP_TAPCELL_ROW_24_167
*250 TAP_TAPCELL_ROW_24_168
*251 TAP_TAPCELL_ROW_25_169
*252 TAP_TAPCELL_ROW_25_170
*253 TAP_TAPCELL_ROW_25_171
*254 TAP_TAPCELL_ROW_25_172
*255 TAP_TAPCELL_ROW_25_173
*256 TAP_TAPCELL_ROW_25_174
*257 TAP_TAPCELL_ROW_26_175
*258 TAP_TAPCELL_ROW_26_176
*259 TAP_TAPCELL_ROW_26_177
*260 TAP_TAPCELL_ROW_26_178
*261 TAP_TAPCELL_ROW_26_179
*262 TAP_TAPCELL_ROW_26_180
*263 TAP_TAPCELL_ROW_26_181
*264 TAP_TAPCELL_ROW_27_182
*265 TAP_TAPCELL_ROW_27_183
*266 TAP_TAPCELL_ROW_27_184
*267 TAP_TAPCELL_ROW_27_185
*268 TAP_TAPCELL_ROW_27_186
*269 TAP_TAPCELL_ROW_27_187
*270 TAP_TAPCELL_ROW_28_188
*271 TAP_TAPCELL_ROW_28_189
*272 TAP_TAPCELL_ROW_28_190
*273 TAP_TAPCELL_ROW_28_191
*274 TAP_TAPCELL_ROW_28_192
*275 TAP_TAPCELL_ROW_28_193
*276 TAP_TAPCELL_ROW_28_194
*277 TAP_TAPCELL_ROW_29_195
*278 TAP_TAPCELL_ROW_29_196
*279 TAP_TAPCELL_ROW_29_197
*280 TAP_TAPCELL_ROW_29_198
*281 TAP_TAPCELL_ROW_29_199
*282 TAP_TAPCELL_ROW_29_200
*283 TAP_TAPCELL_ROW_30_201
*284 TAP_TAPCELL_ROW_30_202
*285 TAP_TAPCELL_ROW_30_203
*286 TAP_TAPCELL_ROW_30_204
*287 TAP_TAPCELL_ROW_30_205
*288 TAP_TAPCELL_ROW_30_206
*289 TAP_TAPCELL_ROW_30_207
*290 TAP_TAPCELL_ROW_31_208
*291 TAP_TAPCELL_ROW_31_209
*292 TAP_TAPCELL_ROW_31_210
*293 TAP_TAPCELL_ROW_31_211
*294 TAP_TAPCELL_ROW_31_212
*295 TAP_TAPCELL_ROW_31_213
*296 TAP_TAPCELL_ROW_32_214
*297 TAP_TAPCELL_ROW_32_215
*298 TAP_TAPCELL_ROW_32_216
*299 TAP_TAPCELL_ROW_32_217
*300 TAP_TAPCELL_ROW_32_218
*301 TAP_TAPCELL_ROW_32_219
*302 TAP_TAPCELL_ROW_32_220
*303 TAP_TAPCELL_ROW_33_221
*304 TAP_TAPCELL_ROW_33_222
*305 TAP_TAPCELL_ROW_33_223
*306 TAP_TAPCELL_ROW_33_224
*307 TAP_TAPCELL_ROW_33_225
*308 TAP_TAPCELL_ROW_33_226
*309 TAP_TAPCELL_ROW_34_227
*310 TAP_TAPCELL_ROW_34_228
*311 TAP_TAPCELL_ROW_34_229
*312 TAP_TAPCELL_ROW_34_230
*313 TAP_TAPCELL_ROW_34_231
*314 TAP_TAPCELL_ROW_34_232
*315 TAP_TAPCELL_ROW_34_233
*316 TAP_TAPCELL_ROW_35_234
*317 TAP_TAPCELL_ROW_35_235
*318 TAP_TAPCELL_ROW_35_236
*319 TAP_TAPCELL_ROW_35_237
*320 TAP_TAPCELL_ROW_35_238
*321 TAP_TAPCELL_ROW_35_239
*322 TAP_TAPCELL_ROW_36_240
*323 TAP_TAPCELL_ROW_36_241
*324 TAP_TAPCELL_ROW_36_242
*325 TAP_TAPCELL_ROW_36_243
*326 TAP_TAPCELL_ROW_36_244
*327 TAP_TAPCELL_ROW_36_245
*328 TAP_TAPCELL_ROW_36_246
*329 TAP_TAPCELL_ROW_37_247
*330 TAP_TAPCELL_ROW_37_248
*331 TAP_TAPCELL_ROW_37_249
*332 TAP_TAPCELL_ROW_37_250
*333 TAP_TAPCELL_ROW_37_251
*334 TAP_TAPCELL_ROW_37_252
*335 TAP_TAPCELL_ROW_38_253
*336 TAP_TAPCELL_ROW_38_254
*337 TAP_TAPCELL_ROW_38_255
*338 TAP_TAPCELL_ROW_38_256
*339 TAP_TAPCELL_ROW_38_257
*340 TAP_TAPCELL_ROW_38_258
*341 TAP_TAPCELL_ROW_38_259
*342 TAP_TAPCELL_ROW_39_260
*343 TAP_TAPCELL_ROW_39_261
*344 TAP_TAPCELL_ROW_39_262
*345 TAP_TAPCELL_ROW_39_263
*346 TAP_TAPCELL_ROW_39_264
*347 TAP_TAPCELL_ROW_39_265
*348 TAP_TAPCELL_ROW_40_266
*349 TAP_TAPCELL_ROW_40_267
*350 TAP_TAPCELL_ROW_40_268
*351 TAP_TAPCELL_ROW_40_269
*352 TAP_TAPCELL_ROW_40_270
*353 TAP_TAPCELL_ROW_40_271
*354 TAP_TAPCELL_ROW_40_272
*355 TAP_TAPCELL_ROW_41_273
*356 TAP_TAPCELL_ROW_41_274
*357 TAP_TAPCELL_ROW_41_275
*358 TAP_TAPCELL_ROW_41_276
*359 TAP_TAPCELL_ROW_41_277
*360 TAP_TAPCELL_ROW_41_278
*361 TAP_TAPCELL_ROW_42_279
*362 TAP_TAPCELL_ROW_42_280
*363 TAP_TAPCELL_ROW_42_281
*364 TAP_TAPCELL_ROW_42_282
*365 TAP_TAPCELL_ROW_42_283
*366 TAP_TAPCELL_ROW_42_284
*367 TAP_TAPCELL_ROW_42_285
*368 TAP_TAPCELL_ROW_43_286
*369 TAP_TAPCELL_ROW_43_287
*370 TAP_TAPCELL_ROW_43_288
*371 TAP_TAPCELL_ROW_43_289
*372 TAP_TAPCELL_ROW_43_290
*373 TAP_TAPCELL_ROW_43_291
*374 TAP_TAPCELL_ROW_44_292
*375 TAP_TAPCELL_ROW_44_293
*376 TAP_TAPCELL_ROW_44_294
*377 TAP_TAPCELL_ROW_44_295
*378 TAP_TAPCELL_ROW_44_296
*379 TAP_TAPCELL_ROW_44_297
*380 TAP_TAPCELL_ROW_44_298
*381 TAP_TAPCELL_ROW_45_299
*382 TAP_TAPCELL_ROW_45_300
*383 TAP_TAPCELL_ROW_45_301
*384 TAP_TAPCELL_ROW_45_302
*385 TAP_TAPCELL_ROW_45_303
*386 TAP_TAPCELL_ROW_45_304
*387 TAP_TAPCELL_ROW_46_305
*388 TAP_TAPCELL_ROW_46_306
*389 TAP_TAPCELL_ROW_46_307
*390 TAP_TAPCELL_ROW_46_308
*391 TAP_TAPCELL_ROW_46_309
*392 TAP_TAPCELL_ROW_46_310
*393 TAP_TAPCELL_ROW_46_311
*394 TAP_TAPCELL_ROW_47_312
*395 TAP_TAPCELL_ROW_47_313
*396 TAP_TAPCELL_ROW_47_314
*397 TAP_TAPCELL_ROW_47_315
*398 TAP_TAPCELL_ROW_47_316
*399 TAP_TAPCELL_ROW_47_317
*400 TAP_TAPCELL_ROW_48_318
*401 TAP_TAPCELL_ROW_48_319
*402 TAP_TAPCELL_ROW_48_320
*403 TAP_TAPCELL_ROW_48_321
*404 TAP_TAPCELL_ROW_48_322
*405 TAP_TAPCELL_ROW_48_323
*406 TAP_TAPCELL_ROW_48_324
*407 TAP_TAPCELL_ROW_49_325
*408 TAP_TAPCELL_ROW_49_326
*409 TAP_TAPCELL_ROW_49_327
*410 TAP_TAPCELL_ROW_49_328
*411 TAP_TAPCELL_ROW_49_329
*412 TAP_TAPCELL_ROW_49_330
*413 TAP_TAPCELL_ROW_50_331
*414 TAP_TAPCELL_ROW_50_332
*415 TAP_TAPCELL_ROW_50_333
*416 TAP_TAPCELL_ROW_50_334
*417 TAP_TAPCELL_ROW_50_335
*418 TAP_TAPCELL_ROW_50_336
*419 TAP_TAPCELL_ROW_50_337
*420 TAP_TAPCELL_ROW_51_338
*421 TAP_TAPCELL_ROW_51_339
*422 TAP_TAPCELL_ROW_51_340
*423 TAP_TAPCELL_ROW_51_341
*424 TAP_TAPCELL_ROW_51_342
*425 TAP_TAPCELL_ROW_51_343
*426 TAP_TAPCELL_ROW_52_344
*427 TAP_TAPCELL_ROW_52_345
*428 TAP_TAPCELL_ROW_52_346
*429 TAP_TAPCELL_ROW_52_347
*430 TAP_TAPCELL_ROW_52_348
*431 TAP_TAPCELL_ROW_52_349
*432 TAP_TAPCELL_ROW_52_350
*433 TAP_TAPCELL_ROW_53_351
*434 TAP_TAPCELL_ROW_53_352
*435 TAP_TAPCELL_ROW_53_353
*436 TAP_TAPCELL_ROW_53_354
*437 TAP_TAPCELL_ROW_53_355
*438 TAP_TAPCELL_ROW_53_356
*439 TAP_TAPCELL_ROW_54_357
*440 TAP_TAPCELL_ROW_54_358
*441 TAP_TAPCELL_ROW_54_359
*442 TAP_TAPCELL_ROW_54_360
*443 TAP_TAPCELL_ROW_54_361
*444 TAP_TAPCELL_ROW_54_362
*445 TAP_TAPCELL_ROW_54_363
*446 TAP_TAPCELL_ROW_55_364
*447 TAP_TAPCELL_ROW_55_365
*448 TAP_TAPCELL_ROW_55_366
*449 TAP_TAPCELL_ROW_55_367
*450 TAP_TAPCELL_ROW_55_368
*451 TAP_TAPCELL_ROW_55_369
*452 TAP_TAPCELL_ROW_56_370
*453 TAP_TAPCELL_ROW_56_371
*454 TAP_TAPCELL_ROW_56_372
*455 TAP_TAPCELL_ROW_56_373
*456 TAP_TAPCELL_ROW_56_374
*457 TAP_TAPCELL_ROW_56_375
*458 TAP_TAPCELL_ROW_56_376
*459 TAP_TAPCELL_ROW_57_377
*460 TAP_TAPCELL_ROW_57_378
*461 TAP_TAPCELL_ROW_57_379
*462 TAP_TAPCELL_ROW_57_380
*463 TAP_TAPCELL_ROW_57_381
*464 TAP_TAPCELL_ROW_57_382
*465 TAP_TAPCELL_ROW_58_383
*466 TAP_TAPCELL_ROW_58_384
*467 TAP_TAPCELL_ROW_58_385
*468 TAP_TAPCELL_ROW_58_386
*469 TAP_TAPCELL_ROW_58_387
*470 TAP_TAPCELL_ROW_58_388
*471 TAP_TAPCELL_ROW_58_389
*472 TAP_TAPCELL_ROW_59_390
*473 TAP_TAPCELL_ROW_59_391
*474 TAP_TAPCELL_ROW_59_392
*475 TAP_TAPCELL_ROW_59_393
*476 TAP_TAPCELL_ROW_59_394
*477 TAP_TAPCELL_ROW_59_395
*478 TAP_TAPCELL_ROW_60_396
*479 TAP_TAPCELL_ROW_60_397
*480 TAP_TAPCELL_ROW_60_398
*481 TAP_TAPCELL_ROW_60_399
*482 TAP_TAPCELL_ROW_60_400
*483 TAP_TAPCELL_ROW_60_401
*484 TAP_TAPCELL_ROW_60_402
*485 TAP_TAPCELL_ROW_61_403
*486 TAP_TAPCELL_ROW_61_404
*487 TAP_TAPCELL_ROW_61_405
*488 TAP_TAPCELL_ROW_61_406
*489 TAP_TAPCELL_ROW_61_407
*490 TAP_TAPCELL_ROW_61_408
*491 TAP_TAPCELL_ROW_62_409
*492 TAP_TAPCELL_ROW_62_410
*493 TAP_TAPCELL_ROW_62_411
*494 TAP_TAPCELL_ROW_62_412
*495 TAP_TAPCELL_ROW_62_413
*496 TAP_TAPCELL_ROW_62_414
*497 TAP_TAPCELL_ROW_62_415
*498 TAP_TAPCELL_ROW_63_416
*499 TAP_TAPCELL_ROW_63_417
*500 TAP_TAPCELL_ROW_63_418
*501 TAP_TAPCELL_ROW_63_419
*502 TAP_TAPCELL_ROW_63_420
*503 TAP_TAPCELL_ROW_63_421
*504 TAP_TAPCELL_ROW_64_422
*505 TAP_TAPCELL_ROW_64_423
*506 TAP_TAPCELL_ROW_64_424
*507 TAP_TAPCELL_ROW_64_425
*508 TAP_TAPCELL_ROW_64_426
*509 TAP_TAPCELL_ROW_64_427
*510 TAP_TAPCELL_ROW_64_428
*511 TAP_TAPCELL_ROW_64_429
*512 TAP_TAPCELL_ROW_64_430
*513 TAP_TAPCELL_ROW_64_431
*514 TAP_TAPCELL_ROW_64_432
*515 TAP_TAPCELL_ROW_64_433
*516 TAP_TAPCELL_ROW_64_434
*517 FILLER_0_99
*518 FILLER_0_107
*519 FILLER_0_115
*520 FILLER_0_121
*521 FILLER_0_151
*522 FILLER_0_159
*523 FILLER_0_167
*524 FILLER_0_175
*525 FILLER_0_179
*526 FILLER_0_181
*527 FILLER_0_189
*528 FILLER_0_197
*529 FILLER_0_205
*530 FILLER_0_209
*531 FILLER_0_211
*532 FILLER_0_219
*533 FILLER_0_227
*534 FILLER_0_235
*535 FILLER_0_239
*536 FILLER_0_241
*537 FILLER_0_249
*538 FILLER_0_257
*539 FILLER_0_265
*540 FILLER_0_269
*541 FILLER_0_271
*542 FILLER_0_279
*543 FILLER_0_287
*544 FILLER_0_295
*545 FILLER_0_299
*546 FILLER_0_301
*547 FILLER_0_309
*548 FILLER_0_317
*549 FILLER_0_325
*550 FILLER_0_329
*551 FILLER_0_331
*552 FILLER_0_339
*553 FILLER_0_347
*554 FILLER_0_355
*555 FILLER_0_359
*556 FILLER_0_361
*557 FILLER_0_369
*558 FILLER_0_377
*559 FILLER_0_385
*560 FILLER_0_389
*561 FILLER_1_0
*562 FILLER_1_8
*563 FILLER_1_16
*564 FILLER_1_24
*565 FILLER_1_32
*566 FILLER_1_40
*567 FILLER_1_48
*568 FILLER_1_56
*569 FILLER_1_61
*570 FILLER_1_69
*571 FILLER_1_77
*572 FILLER_1_85
*573 FILLER_1_93
*574 FILLER_1_101
*575 FILLER_1_109
*576 FILLER_1_117
*577 FILLER_1_119
*578 FILLER_1_121
*579 FILLER_1_129
*580 FILLER_1_133
*581 FILLER_1_137
*582 FILLER_1_139
*583 FILLER_1_143
*584 FILLER_1_147
*585 FILLER_1_151
*586 FILLER_1_159
*587 FILLER_1_167
*588 FILLER_1_175
*589 FILLER_1_179
*590 FILLER_1_181
*591 FILLER_1_189
*592 FILLER_1_197
*593 FILLER_1_205
*594 FILLER_1_213
*595 FILLER_1_221
*596 FILLER_1_229
*597 FILLER_1_237
*598 FILLER_1_239
*599 FILLER_1_241
*600 FILLER_1_249
*601 FILLER_1_257
*602 FILLER_1_265
*603 FILLER_1_273
*604 FILLER_1_281
*605 FILLER_1_289
*606 FILLER_1_297
*607 FILLER_1_299
*608 FILLER_1_301
*609 FILLER_1_309
*610 FILLER_1_317
*611 FILLER_1_325
*612 FILLER_1_333
*613 FILLER_1_341
*614 FILLER_1_349
*615 FILLER_1_357
*616 FILLER_1_359
*617 FILLER_1_361
*618 FILLER_1_369
*619 FILLER_1_377
*620 FILLER_1_385
*621 FILLER_1_389
*622 FILLER_2_0
*623 FILLER_2_8
*624 FILLER_2_16
*625 FILLER_2_24
*626 FILLER_2_28
*627 FILLER_2_31
*628 FILLER_2_39
*629 FILLER_2_47
*630 FILLER_2_55
*631 FILLER_2_63
*632 FILLER_2_71
*633 FILLER_2_79
*634 FILLER_2_87
*635 FILLER_2_89
*636 FILLER_2_91
*637 FILLER_2_99
*638 FILLER_2_107
*639 FILLER_2_115
*640 FILLER_2_123
*641 FILLER_2_131
*642 FILLER_2_139
*643 FILLER_2_147
*644 FILLER_2_149
*645 FILLER_2_151
*646 FILLER_2_159
*647 FILLER_2_167
*648 FILLER_2_175
*649 FILLER_2_183
*650 FILLER_2_191
*651 FILLER_2_199
*652 FILLER_2_207
*653 FILLER_2_209
*654 FILLER_2_211
*655 FILLER_2_219
*656 FILLER_2_227
*657 FILLER_2_235
*658 FILLER_2_243
*659 FILLER_2_251
*660 FILLER_2_259
*661 FILLER_2_267
*662 FILLER_2_269
*663 FILLER_2_271
*664 FILLER_2_279
*665 FILLER_2_287
*666 FILLER_2_295
*667 FILLER_2_303
*668 FILLER_2_311
*669 FILLER_2_319
*670 FILLER_2_327
*671 FILLER_2_329
*672 FILLER_2_331
*673 FILLER_2_339
*674 FILLER_2_347
*675 FILLER_2_355
*676 FILLER_2_363
*677 FILLER_2_371
*678 FILLER_2_379
*679 FILLER_2_387
*680 FILLER_2_389
*681 FILLER_3_0
*682 FILLER_3_8
*683 FILLER_3_16
*684 FILLER_3_24
*685 FILLER_3_32
*686 FILLER_3_40
*687 FILLER_3_48
*688 FILLER_3_56
*689 FILLER_3_61
*690 FILLER_3_69
*691 FILLER_3_77
*692 FILLER_3_85
*693 FILLER_3_93
*694 FILLER_3_101
*695 FILLER_3_109
*696 FILLER_3_117
*697 FILLER_3_119
*698 FILLER_3_121
*699 FILLER_3_129
*700 FILLER_3_137
*701 FILLER_3_145
*702 FILLER_3_153
*703 FILLER_3_161
*704 FILLER_3_169
*705 FILLER_3_177
*706 FILLER_3_179
*707 FILLER_3_181
*708 FILLER_3_189
*709 FILLER_3_197
*710 FILLER_3_205
*711 FILLER_3_213
*712 FILLER_3_221
*713 FILLER_3_229
*714 FILLER_3_237
*715 FILLER_3_239
*716 FILLER_3_241
*717 FILLER_3_249
*718 FILLER_3_257
*719 FILLER_3_265
*720 FILLER_3_273
*721 FILLER_3_281
*722 FILLER_3_289
*723 FILLER_3_297
*724 FILLER_3_299
*725 FILLER_3_301
*726 FILLER_3_309
*727 FILLER_3_317
*728 FILLER_3_325
*729 FILLER_3_333
*730 FILLER_3_341
*731 FILLER_3_349
*732 FILLER_3_357
*733 FILLER_3_359
*734 FILLER_3_361
*735 FILLER_3_369
*736 FILLER_3_377
*737 FILLER_3_385
*738 FILLER_3_389
*739 FILLER_4_0
*740 FILLER_4_8
*741 FILLER_4_16
*742 FILLER_4_24
*743 FILLER_4_28
*744 FILLER_4_31
*745 FILLER_4_39
*746 FILLER_4_47
*747 FILLER_4_55
*748 FILLER_4_63
*749 FILLER_4_71
*750 FILLER_4_79
*751 FILLER_4_87
*752 FILLER_4_89
*753 FILLER_4_91
*754 FILLER_4_99
*755 FILLER_4_107
*756 FILLER_4_115
*757 FILLER_4_123
*758 FILLER_4_131
*759 FILLER_4_139
*760 FILLER_4_147
*761 FILLER_4_149
*762 FILLER_4_151
*763 FILLER_4_159
*764 FILLER_4_167
*765 FILLER_4_175
*766 FILLER_4_183
*767 FILLER_4_191
*768 FILLER_4_199
*769 FILLER_4_207
*770 FILLER_4_209
*771 FILLER_4_211
*772 FILLER_4_219
*773 FILLER_4_227
*774 FILLER_4_235
*775 FILLER_4_243
*776 FILLER_4_251
*777 FILLER_4_259
*778 FILLER_4_267
*779 FILLER_4_269
*780 FILLER_4_271
*781 FILLER_4_279
*782 FILLER_4_287
*783 FILLER_4_295
*784 FILLER_4_303
*785 FILLER_4_311
*786 FILLER_4_319
*787 FILLER_4_327
*788 FILLER_4_329
*789 FILLER_4_331
*790 FILLER_4_339
*791 FILLER_4_347
*792 FILLER_4_355
*793 FILLER_4_363
*794 FILLER_4_371
*795 FILLER_4_379
*796 FILLER_4_387
*797 FILLER_4_389
*798 FILLER_5_0
*799 FILLER_5_8
*800 FILLER_5_16
*801 FILLER_5_24
*802 FILLER_5_32
*803 FILLER_5_40
*804 FILLER_5_48
*805 FILLER_5_56
*806 FILLER_5_61
*807 FILLER_5_69
*808 FILLER_5_77
*809 FILLER_5_85
*810 FILLER_5_93
*811 FILLER_5_101
*812 FILLER_5_109
*813 FILLER_5_117
*814 FILLER_5_119
*815 FILLER_5_121
*816 FILLER_5_129
*817 FILLER_5_137
*818 FILLER_5_145
*819 FILLER_5_153
*820 FILLER_5_161
*821 FILLER_5_169
*822 FILLER_5_177
*823 FILLER_5_179
*824 FILLER_5_181
*825 FILLER_5_189
*826 FILLER_5_197
*827 FILLER_5_205
*828 FILLER_5_213
*829 FILLER_5_221
*830 FILLER_5_229
*831 FILLER_5_237
*832 FILLER_5_239
*833 FILLER_5_241
*834 FILLER_5_249
*835 FILLER_5_257
*836 FILLER_5_265
*837 FILLER_5_273
*838 FILLER_5_281
*839 FILLER_5_289
*840 FILLER_5_297
*841 FILLER_5_299
*842 FILLER_5_301
*843 FILLER_5_309
*844 FILLER_5_317
*845 FILLER_5_325
*846 FILLER_5_333
*847 FILLER_5_341
*848 FILLER_5_349
*849 FILLER_5_357
*850 FILLER_5_359
*851 FILLER_5_361
*852 FILLER_5_369
*853 FILLER_5_377
*854 FILLER_5_385
*855 FILLER_5_389
*856 FILLER_6_0
*857 FILLER_6_8
*858 FILLER_6_16
*859 FILLER_6_24
*860 FILLER_6_28
*861 FILLER_6_31
*862 FILLER_6_39
*863 FILLER_6_47
*864 FILLER_6_55
*865 FILLER_6_63
*866 FILLER_6_71
*867 FILLER_6_79
*868 FILLER_6_87
*869 FILLER_6_89
*870 FILLER_6_91
*871 FILLER_6_99
*872 FILLER_6_107
*873 FILLER_6_115
*874 FILLER_6_123
*875 FILLER_6_131
*876 FILLER_6_139
*877 FILLER_6_147
*878 FILLER_6_149
*879 FILLER_6_151
*880 FILLER_6_159
*881 FILLER_6_167
*882 FILLER_6_175
*883 FILLER_6_183
*884 FILLER_6_191
*885 FILLER_6_199
*886 FILLER_6_207
*887 FILLER_6_209
*888 FILLER_6_211
*889 FILLER_6_219
*890 FILLER_6_227
*891 FILLER_6_235
*892 FILLER_6_243
*893 FILLER_6_251
*894 FILLER_6_259
*895 FILLER_6_267
*896 FILLER_6_269
*897 FILLER_6_271
*898 FILLER_6_279
*899 FILLER_6_287
*900 FILLER_6_295
*901 FILLER_6_303
*902 FILLER_6_311
*903 FILLER_6_319
*904 FILLER_6_327
*905 FILLER_6_329
*906 FILLER_6_331
*907 FILLER_6_339
*908 FILLER_6_347
*909 FILLER_6_355
*910 FILLER_6_363
*911 FILLER_6_371
*912 FILLER_6_379
*913 FILLER_6_387
*914 FILLER_6_389
*915 FILLER_7_0
*916 FILLER_7_8
*917 FILLER_7_16
*918 FILLER_7_24
*919 FILLER_7_32
*920 FILLER_7_40
*921 FILLER_7_48
*922 FILLER_7_56
*923 FILLER_7_61
*924 FILLER_7_69
*925 FILLER_7_77
*926 FILLER_7_85
*927 FILLER_7_93
*928 FILLER_7_101
*929 FILLER_7_109
*930 FILLER_7_117
*931 FILLER_7_119
*932 FILLER_7_121
*933 FILLER_7_129
*934 FILLER_7_137
*935 FILLER_7_145
*936 FILLER_7_153
*937 FILLER_7_161
*938 FILLER_7_169
*939 FILLER_7_177
*940 FILLER_7_179
*941 FILLER_7_181
*942 FILLER_7_189
*943 FILLER_7_197
*944 FILLER_7_205
*945 FILLER_7_213
*946 FILLER_7_221
*947 FILLER_7_229
*948 FILLER_7_237
*949 FILLER_7_239
*950 FILLER_7_241
*951 FILLER_7_249
*952 FILLER_7_257
*953 FILLER_7_265
*954 FILLER_7_273
*955 FILLER_7_281
*956 FILLER_7_289
*957 FILLER_7_297
*958 FILLER_7_299
*959 FILLER_7_301
*960 FILLER_7_309
*961 FILLER_7_317
*962 FILLER_7_325
*963 FILLER_7_333
*964 FILLER_7_341
*965 FILLER_7_349
*966 FILLER_7_357
*967 FILLER_7_359
*968 FILLER_7_361
*969 FILLER_7_369
*970 FILLER_7_377
*971 FILLER_7_385
*972 FILLER_7_389
*973 FILLER_8_0
*974 FILLER_8_8
*975 FILLER_8_16
*976 FILLER_8_24
*977 FILLER_8_28
*978 FILLER_8_31
*979 FILLER_8_39
*980 FILLER_8_47
*981 FILLER_8_55
*982 FILLER_8_63
*983 FILLER_8_71
*984 FILLER_8_79
*985 FILLER_8_87
*986 FILLER_8_89
*987 FILLER_8_91
*988 FILLER_8_99
*989 FILLER_8_107
*990 FILLER_8_115
*991 FILLER_8_123
*992 FILLER_8_131
*993 FILLER_8_139
*994 FILLER_8_147
*995 FILLER_8_149
*996 FILLER_8_151
*997 FILLER_8_159
*998 FILLER_8_167
*999 FILLER_8_175
*1000 FILLER_8_183
*1001 FILLER_8_191
*1002 FILLER_8_199
*1003 FILLER_8_207
*1004 FILLER_8_209
*1005 FILLER_8_211
*1006 FILLER_8_219
*1007 FILLER_8_227
*1008 FILLER_8_235
*1009 FILLER_8_243
*1010 FILLER_8_251
*1011 FILLER_8_259
*1012 FILLER_8_267
*1013 FILLER_8_269
*1014 FILLER_8_271
*1015 FILLER_8_279
*1016 FILLER_8_287
*1017 FILLER_8_295
*1018 FILLER_8_303
*1019 FILLER_8_311
*1020 FILLER_8_319
*1021 FILLER_8_327
*1022 FILLER_8_329
*1023 FILLER_8_331
*1024 FILLER_8_339
*1025 FILLER_8_347
*1026 FILLER_8_355
*1027 FILLER_8_363
*1028 FILLER_8_371
*1029 FILLER_8_379
*1030 FILLER_8_387
*1031 FILLER_8_389
*1032 FILLER_9_0
*1033 FILLER_9_8
*1034 FILLER_9_16
*1035 FILLER_9_24
*1036 FILLER_9_32
*1037 FILLER_9_40
*1038 FILLER_9_48
*1039 FILLER_9_56
*1040 FILLER_9_61
*1041 FILLER_9_69
*1042 FILLER_9_77
*1043 FILLER_9_85
*1044 FILLER_9_93
*1045 FILLER_9_101
*1046 FILLER_9_109
*1047 FILLER_9_117
*1048 FILLER_9_119
*1049 FILLER_9_121
*1050 FILLER_9_129
*1051 FILLER_9_137
*1052 FILLER_9_145
*1053 FILLER_9_153
*1054 FILLER_9_161
*1055 FILLER_9_169
*1056 FILLER_9_177
*1057 FILLER_9_179
*1058 FILLER_9_181
*1059 FILLER_9_189
*1060 FILLER_9_197
*1061 FILLER_9_205
*1062 FILLER_9_213
*1063 FILLER_9_221
*1064 FILLER_9_229
*1065 FILLER_9_237
*1066 FILLER_9_239
*1067 FILLER_9_241
*1068 FILLER_9_249
*1069 FILLER_9_257
*1070 FILLER_9_265
*1071 FILLER_9_273
*1072 FILLER_9_281
*1073 FILLER_9_289
*1074 FILLER_9_297
*1075 FILLER_9_299
*1076 FILLER_9_301
*1077 FILLER_9_309
*1078 FILLER_9_317
*1079 FILLER_9_325
*1080 FILLER_9_333
*1081 FILLER_9_341
*1082 FILLER_9_349
*1083 FILLER_9_357
*1084 FILLER_9_359
*1085 FILLER_9_361
*1086 FILLER_9_369
*1087 FILLER_9_377
*1088 FILLER_9_385
*1089 FILLER_9_389
*1090 FILLER_10_0
*1091 FILLER_10_8
*1092 FILLER_10_16
*1093 FILLER_10_24
*1094 FILLER_10_28
*1095 FILLER_10_31
*1096 FILLER_10_39
*1097 FILLER_10_47
*1098 FILLER_10_55
*1099 FILLER_10_63
*1100 FILLER_10_71
*1101 FILLER_10_79
*1102 FILLER_10_87
*1103 FILLER_10_89
*1104 FILLER_10_91
*1105 FILLER_10_99
*1106 FILLER_10_107
*1107 FILLER_10_115
*1108 FILLER_10_123
*1109 FILLER_10_131
*1110 FILLER_10_139
*1111 FILLER_10_147
*1112 FILLER_10_149
*1113 FILLER_10_151
*1114 FILLER_10_159
*1115 FILLER_10_167
*1116 FILLER_10_175
*1117 FILLER_10_183
*1118 FILLER_10_191
*1119 FILLER_10_199
*1120 FILLER_10_207
*1121 FILLER_10_209
*1122 FILLER_10_211
*1123 FILLER_10_219
*1124 FILLER_10_227
*1125 FILLER_10_235
*1126 FILLER_10_243
*1127 FILLER_10_251
*1128 FILLER_10_259
*1129 FILLER_10_267
*1130 FILLER_10_269
*1131 FILLER_10_271
*1132 FILLER_10_279
*1133 FILLER_10_287
*1134 FILLER_10_295
*1135 FILLER_10_303
*1136 FILLER_10_311
*1137 FILLER_10_319
*1138 FILLER_10_327
*1139 FILLER_10_329
*1140 FILLER_10_331
*1141 FILLER_10_339
*1142 FILLER_10_347
*1143 FILLER_10_355
*1144 FILLER_10_363
*1145 FILLER_10_371
*1146 FILLER_10_379
*1147 FILLER_10_387
*1148 FILLER_10_389
*1149 FILLER_11_0
*1150 FILLER_11_8
*1151 FILLER_11_16
*1152 FILLER_11_24
*1153 FILLER_11_32
*1154 FILLER_11_40
*1155 FILLER_11_48
*1156 FILLER_11_56
*1157 FILLER_11_61
*1158 FILLER_11_69
*1159 FILLER_11_77
*1160 FILLER_11_85
*1161 FILLER_11_93
*1162 FILLER_11_101
*1163 FILLER_11_109
*1164 FILLER_11_117
*1165 FILLER_11_119
*1166 FILLER_11_121
*1167 FILLER_11_129
*1168 FILLER_11_137
*1169 FILLER_11_145
*1170 FILLER_11_153
*1171 FILLER_11_161
*1172 FILLER_11_169
*1173 FILLER_11_177
*1174 FILLER_11_179
*1175 FILLER_11_181
*1176 FILLER_11_189
*1177 FILLER_11_197
*1178 FILLER_11_205
*1179 FILLER_11_213
*1180 FILLER_11_221
*1181 FILLER_11_229
*1182 FILLER_11_237
*1183 FILLER_11_239
*1184 FILLER_11_241
*1185 FILLER_11_249
*1186 FILLER_11_257
*1187 FILLER_11_265
*1188 FILLER_11_273
*1189 FILLER_11_281
*1190 FILLER_11_289
*1191 FILLER_11_297
*1192 FILLER_11_299
*1193 FILLER_11_301
*1194 FILLER_11_309
*1195 FILLER_11_317
*1196 FILLER_11_325
*1197 FILLER_11_333
*1198 FILLER_11_341
*1199 FILLER_11_349
*1200 FILLER_11_357
*1201 FILLER_11_359
*1202 FILLER_11_361
*1203 FILLER_11_369
*1204 FILLER_11_377
*1205 FILLER_11_385
*1206 FILLER_11_389
*1207 FILLER_12_0
*1208 FILLER_12_8
*1209 FILLER_12_16
*1210 FILLER_12_24
*1211 FILLER_12_28
*1212 FILLER_12_31
*1213 FILLER_12_39
*1214 FILLER_12_47
*1215 FILLER_12_55
*1216 FILLER_12_63
*1217 FILLER_12_71
*1218 FILLER_12_79
*1219 FILLER_12_87
*1220 FILLER_12_89
*1221 FILLER_12_91
*1222 FILLER_12_99
*1223 FILLER_12_107
*1224 FILLER_12_115
*1225 FILLER_12_123
*1226 FILLER_12_131
*1227 FILLER_12_139
*1228 FILLER_12_147
*1229 FILLER_12_149
*1230 FILLER_12_151
*1231 FILLER_12_159
*1232 FILLER_12_167
*1233 FILLER_12_175
*1234 FILLER_12_183
*1235 FILLER_12_191
*1236 FILLER_12_199
*1237 FILLER_12_207
*1238 FILLER_12_209
*1239 FILLER_12_211
*1240 FILLER_12_219
*1241 FILLER_12_227
*1242 FILLER_12_235
*1243 FILLER_12_243
*1244 FILLER_12_251
*1245 FILLER_12_259
*1246 FILLER_12_267
*1247 FILLER_12_269
*1248 FILLER_12_271
*1249 FILLER_12_279
*1250 FILLER_12_287
*1251 FILLER_12_295
*1252 FILLER_12_303
*1253 FILLER_12_311
*1254 FILLER_12_319
*1255 FILLER_12_327
*1256 FILLER_12_329
*1257 FILLER_12_331
*1258 FILLER_12_339
*1259 FILLER_12_347
*1260 FILLER_12_355
*1261 FILLER_12_363
*1262 FILLER_12_371
*1263 FILLER_12_379
*1264 FILLER_12_387
*1265 FILLER_12_389
*1266 FILLER_13_0
*1267 FILLER_13_8
*1268 FILLER_13_16
*1269 FILLER_13_24
*1270 FILLER_13_32
*1271 FILLER_13_40
*1272 FILLER_13_48
*1273 FILLER_13_56
*1274 FILLER_13_61
*1275 FILLER_13_69
*1276 FILLER_13_77
*1277 FILLER_13_85
*1278 FILLER_13_93
*1279 FILLER_13_101
*1280 FILLER_13_109
*1281 FILLER_13_117
*1282 FILLER_13_119
*1283 FILLER_13_121
*1284 FILLER_13_129
*1285 FILLER_13_137
*1286 FILLER_13_145
*1287 FILLER_13_153
*1288 FILLER_13_161
*1289 FILLER_13_169
*1290 FILLER_13_177
*1291 FILLER_13_179
*1292 FILLER_13_181
*1293 FILLER_13_189
*1294 FILLER_13_197
*1295 FILLER_13_205
*1296 FILLER_13_213
*1297 FILLER_13_221
*1298 FILLER_13_229
*1299 FILLER_13_237
*1300 FILLER_13_239
*1301 FILLER_13_241
*1302 FILLER_13_249
*1303 FILLER_13_257
*1304 FILLER_13_265
*1305 FILLER_13_273
*1306 FILLER_13_281
*1307 FILLER_13_289
*1308 FILLER_13_297
*1309 FILLER_13_299
*1310 FILLER_13_301
*1311 FILLER_13_309
*1312 FILLER_13_317
*1313 FILLER_13_325
*1314 FILLER_13_333
*1315 FILLER_13_341
*1316 FILLER_13_349
*1317 FILLER_13_357
*1318 FILLER_13_359
*1319 FILLER_13_361
*1320 FILLER_13_369
*1321 FILLER_13_377
*1322 FILLER_13_385
*1323 FILLER_13_389
*1324 FILLER_14_0
*1325 FILLER_14_8
*1326 FILLER_14_16
*1327 FILLER_14_24
*1328 FILLER_14_28
*1329 FILLER_14_31
*1330 FILLER_14_39
*1331 FILLER_14_47
*1332 FILLER_14_55
*1333 FILLER_14_63
*1334 FILLER_14_71
*1335 FILLER_14_79
*1336 FILLER_14_87
*1337 FILLER_14_89
*1338 FILLER_14_91
*1339 FILLER_14_99
*1340 FILLER_14_107
*1341 FILLER_14_115
*1342 FILLER_14_123
*1343 FILLER_14_131
*1344 FILLER_14_139
*1345 FILLER_14_147
*1346 FILLER_14_149
*1347 FILLER_14_151
*1348 FILLER_14_159
*1349 FILLER_14_167
*1350 FILLER_14_175
*1351 FILLER_14_183
*1352 FILLER_14_191
*1353 FILLER_14_199
*1354 FILLER_14_207
*1355 FILLER_14_209
*1356 FILLER_14_211
*1357 FILLER_14_219
*1358 FILLER_14_227
*1359 FILLER_14_235
*1360 FILLER_14_243
*1361 FILLER_14_251
*1362 FILLER_14_259
*1363 FILLER_14_267
*1364 FILLER_14_269
*1365 FILLER_14_271
*1366 FILLER_14_279
*1367 FILLER_14_287
*1368 FILLER_14_295
*1369 FILLER_14_303
*1370 FILLER_14_311
*1371 FILLER_14_319
*1372 FILLER_14_327
*1373 FILLER_14_329
*1374 FILLER_14_331
*1375 FILLER_14_339
*1376 FILLER_14_347
*1377 FILLER_14_355
*1378 FILLER_14_363
*1379 FILLER_14_371
*1380 FILLER_14_379
*1381 FILLER_14_387
*1382 FILLER_14_389
*1383 FILLER_15_0
*1384 FILLER_15_8
*1385 FILLER_15_16
*1386 FILLER_15_24
*1387 FILLER_15_32
*1388 FILLER_15_40
*1389 FILLER_15_48
*1390 FILLER_15_56
*1391 FILLER_15_61
*1392 FILLER_15_69
*1393 FILLER_15_77
*1394 FILLER_15_85
*1395 FILLER_15_93
*1396 FILLER_15_101
*1397 FILLER_15_109
*1398 FILLER_15_117
*1399 FILLER_15_119
*1400 FILLER_15_121
*1401 FILLER_15_129
*1402 FILLER_15_137
*1403 FILLER_15_145
*1404 FILLER_15_153
*1405 FILLER_15_161
*1406 FILLER_15_169
*1407 FILLER_15_177
*1408 FILLER_15_179
*1409 FILLER_15_181
*1410 FILLER_15_189
*1411 FILLER_15_197
*1412 FILLER_15_205
*1413 FILLER_15_213
*1414 FILLER_15_221
*1415 FILLER_15_229
*1416 FILLER_15_237
*1417 FILLER_15_239