*SPEF "ieee 1481-1999"
*DESIGN "dot_product"
*DATE "15:19:51 Wednesday April 22, 2026"
*VENDOR "The OpenROAD Project"
*PROGRAM "OpenROAD"
*VERSION "26Q2-209-g0d9d73ffba"
*DESIGN_FLOW "NAME_SCOPE LOCAL" "PIN_CAP NONE"
*DIVIDER /
*DELIMITER :
*BUS_DELIMITER []
*T_UNIT 1 NS
*C_UNIT 1 PF
*R_UNIT 1 OHM
*L_UNIT 1 HENRY

*NAME_MAP
*1 A
*2 B
*4 clk
*5 dot_out
*6 rst
*7 valid
*8 TAP_TAPCELL_ROW_0_0
*9 FILLER_0_8
*10 FILLER_0_0
*11 _2__1
*12 _3__2
*13 TAP_TAPCELL_ROW_0_1
*14 TAP_TAPCELL_ROW_0_2
*15 TAP_TAPCELL_ROW_0_3
*16 TAP_TAPCELL_ROW_0_4
*17 TAP_TAPCELL_ROW_0_5
*18 TAP_TAPCELL_ROW_0_6
*19 TAP_TAPCELL_ROW_0_7
*20 TAP_TAPCELL_ROW_0_8
*21 TAP_TAPCELL_ROW_0_9
*22 TAP_TAPCELL_ROW_0_10
*23 TAP_TAPCELL_ROW_0_11
*24 TAP_TAPCELL_ROW_0_12
*25 TAP_TAPCELL_ROW_1_13
*26 TAP_TAPCELL_ROW_1_14
*27 TAP_TAPCELL_ROW_1_15
*28 TAP_TAPCELL_ROW_1_16
*29 TAP_TAPCELL_ROW_1_17
*30 TAP_TAPCELL_ROW_1_18
*31 TAP_TAPCELL_ROW_2_19
*32 TAP_TAPCELL_ROW_2_20
*33 TAP_TAPCELL_ROW_2_21
*34 TAP_TAPCELL_ROW_2_22
*35 TAP_TAPCELL_ROW_2_23
*36 TAP_TAPCELL_ROW_2_24
*37 TAP_TAPCELL_ROW_2_25
*38 TAP_TAPCELL_ROW_3_26
*39 TAP_TAPCELL_ROW_3_27
*40 TAP_TAPCELL_ROW_3_28
*41 TAP_TAPCELL_ROW_3_29
*42 TAP_TAPCELL_ROW_3_30
*43 TAP_TAPCELL_ROW_3_31
*44 TAP_TAPCELL_ROW_4_32
*45 TAP_TAPCELL_ROW_4_33
*46 TAP_TAPCELL_ROW_4_34
*47 TAP_TAPCELL_ROW_4_35
*48 TAP_TAPCELL_ROW_4_36
*49 TAP_TAPCELL_ROW_4_37
*50 TAP_TAPCELL_ROW_4_38
*51 TAP_TAPCELL_ROW_5_39
*52 TAP_TAPCELL_ROW_5_40
*53 TAP_TAPCELL_ROW_5_41
*54 TAP_TAPCELL_ROW_5_42
*55 TAP_TAPCELL_ROW_5_43
*56 TAP_TAPCELL_ROW_5_44
*57 TAP_TAPCELL_ROW_6_45
*58 TAP_TAPCELL_ROW_6_46
*59 TAP_TAPCELL_ROW_6_47
*60 TAP_TAPCELL_ROW_6_48
*61 TAP_TAPCELL_ROW_6_49
*62 TAP_TAPCELL_ROW_6_50
*63 TAP_TAPCELL_ROW_6_51
*64 TAP_TAPCELL_ROW_7_52
*65 TAP_TAPCELL_ROW_7_53
*66 TAP_TAPCELL_ROW_7_54
*67 TAP_TAPCELL_ROW_7_55
*68 TAP_TAPCELL_ROW_7_56
*69 TAP_TAPCELL_ROW_7_57
*70 TAP_TAPCELL_ROW_8_58
*71 TAP_TAPCELL_ROW_8_59
*72 TAP_TAPCELL_ROW_8_60
*73 TAP_TAPCELL_ROW_8_61
*74 TAP_TAPCELL_ROW_8_62
*75 TAP_TAPCELL_ROW_8_63
*76 TAP_TAPCELL_ROW_8_64
*77 TAP_TAPCELL_ROW_9_65
*78 TAP_TAPCELL_ROW_9_66
*79 TAP_TAPCELL_ROW_9_67
*80 TAP_TAPCELL_ROW_9_68
*81 TAP_TAPCELL_ROW_9_69
*82 TAP_TAPCELL_ROW_9_70
*83 TAP_TAPCELL_ROW_10_71
*84 TAP_TAPCELL_ROW_10_72
*85 TAP_TAPCELL_ROW_10_73
*86 TAP_TAPCELL_ROW_10_74
*87 TAP_TAPCELL_ROW_10_75
*88 TAP_TAPCELL_ROW_10_76
*89 TAP_TAPCELL_ROW_10_77
*90 TAP_TAPCELL_ROW_11_78
*91 TAP_TAPCELL_ROW_11_79
*92 TAP_TAPCELL_ROW_11_80
*93 TAP_TAPCELL_ROW_11_81
*94 TAP_TAPCELL_ROW_11_82
*95 TAP_TAPCELL_ROW_11_83
*96 TAP_TAPCELL_ROW_12_84
*97 TAP_TAPCELL_ROW_12_85
*98 TAP_TAPCELL_ROW_12_86
*99 TAP_TAPCELL_ROW_12_87
*100 TAP_TAPCELL_ROW_12_88
*101 TAP_TAPCELL_ROW_12_89
*102 TAP_TAPCELL_ROW_12_90
*103 TAP_TAPCELL_ROW_13_91
*104 TAP_TAPCELL_ROW_13_92
*105 TAP_TAPCELL_ROW_13_93
*106 TAP_TAPCELL_ROW_13_94
*107 TAP_TAPCELL_ROW_13_95
*108 TAP_TAPCELL_ROW_13_96
*109 TAP_TAPCELL_ROW_14_97
*110 TAP_TAPCELL_ROW_14_98
*111 TAP_TAPCELL_ROW_14_99
*112 TAP_TAPCELL_ROW_14_100
*113 TAP_TAPCELL_ROW_14_101
*114 TAP_TAPCELL_ROW_14_102
*115 TAP_TAPCELL_ROW_14_103
*116 TAP_TAPCELL_ROW_15_104
*117 TAP_TAPCELL_ROW_15_105
*118 TAP_TAPCELL_ROW_15_106
*119 TAP_TAPCELL_ROW_15_107
*120 TAP_TAPCELL_ROW_15_108
*121 TAP_TAPCELL_ROW_15_109
*122 TAP_TAPCELL_ROW_16_110
*123 TAP_TAPCELL_ROW_16_111
*124 TAP_TAPCELL_ROW_16_112
*125 TAP_TAPCELL_ROW_16_113
*126 TAP_TAPCELL_ROW_16_114
*127 TAP_TAPCELL_ROW_16_115
*128 TAP_TAPCELL_ROW_16_116
*129 TAP_TAPCELL_ROW_17_117
*130 TAP_TAPCELL_ROW_17_118
*131 TAP_TAPCELL_ROW_17_119
*132 TAP_TAPCELL_ROW_17_120
*133 TAP_TAPCELL_ROW_17_121
*134 TAP_TAPCELL_ROW_17_122
*135 TAP_TAPCELL_ROW_18_123
*136 TAP_TAPCELL_ROW_18_124
*137 TAP_TAPCELL_ROW_18_125
*138 TAP_TAPCELL_ROW_18_126
*139 TAP_TAPCELL_ROW_18_127
*140 TAP_TAPCELL_ROW_18_128
*141 TAP_TAPCELL_ROW_18_129
*142 TAP_TAPCELL_ROW_19_130
*143 TAP_TAPCELL_ROW_19_131
*144 TAP_TAPCELL_ROW_19_132
*145 TAP_TAPCELL_ROW_19_133
*146 TAP_TAPCELL_ROW_19_134
*147 TAP_TAPCELL_ROW_19_135
*148 TAP_TAPCELL_ROW_20_136
*149 TAP_TAPCELL_ROW_20_137
*150 TAP_TAPCELL_ROW_20_138
*151 TAP_TAPCELL_ROW_20_139
*152 TAP_TAPCELL_ROW_20_140
*153 TAP_TAPCELL_ROW_20_141
*154 TAP_TAPCELL_ROW_20_142
*155 TAP_TAPCELL_ROW_21_143
*156 TAP_TAPCELL_ROW_21_144
*157 TAP_TAPCELL_ROW_21_145
*158 TAP_TAPCELL_ROW_21_146
*159 TAP_TAPCELL_ROW_21_147
*160 TAP_TAPCELL_ROW_21_148
*161 TAP_TAPCELL_ROW_22_149
*162 TAP_TAPCELL_ROW_22_150
*163 TAP_TAPCELL_ROW_22_151
*164 TAP_TAPCELL_ROW_22_152
*165 TAP_TAPCELL_ROW_22_153
*166 TAP_TAPCELL_ROW_22_154
*167 TAP_TAPCELL_ROW_22_155
*168 TAP_TAPCELL_ROW_23_156
*169 TAP_TAPCELL_ROW_23_157
*170 TAP_TAPCELL_ROW_23_158
*171 TAP_TAPCELL_ROW_23_159
*172 TAP_TAPCELL_ROW_23_160
*173 TAP_TAPCELL_ROW_23_161
*174 TAP_TAPCELL_ROW_24_162
*175 TAP_TAPCELL_ROW_24_163
*176 TAP_TAPCELL_ROW_24_164
*177 TAP_TAPCELL_ROW_24_165
*178 TAP_TAPCELL_ROW_24_166
*179 TAP_TAPCELL_ROW_24_167
*180 TAP_TAPCELL_ROW_24_168
*181 TAP_TAPCELL_ROW_25_169
*182 TAP_TAPCELL_ROW_25_170
*183 TAP_TAPCELL_ROW_25_171
*184 TAP_TAPCELL_ROW_25_172
*185 TAP_TAPCELL_ROW_25_173
*186 TAP_TAPCELL_ROW_25_174
*187 TAP_TAPCELL_ROW_26_175
*188 TAP_TAPCELL_ROW_26_176
*189 TAP_TAPCELL_ROW_26_177
*190 TAP_TAPCELL_ROW_26_178
*191 TAP_TAPCELL_ROW_26_179
*192 TAP_TAPCELL_ROW_26_180
*193 TAP_TAPCELL_ROW_26_181
*194 TAP_TAPCELL_ROW_27_182
*195 TAP_TAPCELL_ROW_27_183
*196 TAP_TAPCELL_ROW_27_184
*197 TAP_TAPCELL_ROW_27_185
*198 TAP_TAPCELL_ROW_27_186
*199 TAP_TAPCELL_ROW_27_187
*200 TAP_TAPCELL_ROW_28_188
*201 TAP_TAPCELL_ROW_28_189
*202 TAP_TAPCELL_ROW_28_190
*203 TAP_TAPCELL_ROW_28_191
*204 TAP_TAPCELL_ROW_28_192
*205 TAP_TAPCELL_ROW_28_193
*206 TAP_TAPCELL_ROW_28_194
*207 TAP_TAPCELL_ROW_29_195
*208 TAP_TAPCELL_ROW_29_196
*209 TAP_TAPCELL_ROW_29_197
*210 TAP_TAPCELL_ROW_29_198
*211 TAP_TAPCELL_ROW_29_199
*212 TAP_TAPCELL_ROW_29_200
*213 TAP_TAPCELL_ROW_30_201
*214 TAP_TAPCELL_ROW_30_202
*215 TAP_TAPCELL_ROW_30_203
*216 TAP_TAPCELL_ROW_30_204
*217 TAP_TAPCELL_ROW_30_205
*218 TAP_TAPCELL_ROW_30_206
*219 TAP_TAPCELL_ROW_30_207
*220 TAP_TAPCELL_ROW_31_208
*221 TAP_TAPCELL_ROW_31_209
*222 TAP_TAPCELL_ROW_31_210
*223 TAP_TAPCELL_ROW_31_211
*224 TAP_TAPCELL_ROW_31_212
*225 TAP_TAPCELL_ROW_31_213
*226 TAP_TAPCELL_ROW_32_214
*227 TAP_TAPCELL_ROW_32_215
*228 TAP_TAPCELL_ROW_32_216
*229 TAP_TAPCELL_ROW_32_217
*230 TAP_TAPCELL_ROW_32_218
*231 TAP_TAPCELL_ROW_32_219
*232 TAP_TAPCELL_ROW_32_220
*233 TAP_TAPCELL_ROW_33_221
*234 TAP_TAPCELL_ROW_33_222
*235 TAP_TAPCELL_ROW_33_223
*236 TAP_TAPCELL_ROW_33_224
*237 TAP_TAPCELL_ROW_33_225
*238 TAP_TAPCELL_ROW_33_226
*239 TAP_TAPCELL_ROW_34_227
*240 TAP_TAPCELL_ROW_34_228
*241 TAP_TAPCELL_ROW_34_229
*242 TAP_TAPCELL_ROW_34_230
*243 TAP_TAPCELL_ROW_34_231
*244 TAP_TAPCELL_ROW_34_232
*245 TAP_TAPCELL_ROW_34_233
*246 TAP_TAPCELL_ROW_35_234
*247 TAP_TAPCELL_ROW_35_235
*248 TAP_TAPCELL_ROW_35_236
*249 TAP_TAPCELL_ROW_35_237
*250 TAP_TAPCELL_ROW_35_238
*251 TAP_TAPCELL_ROW_35_239
*252 TAP_TAPCELL_ROW_36_240
*253 TAP_TAPCELL_ROW_36_241
*254 TAP_TAPCELL_ROW_36_242
*255 TAP_TAPCELL_ROW_36_243
*256 TAP_TAPCELL_ROW_36_244
*257 TAP_TAPCELL_ROW_36_245
*258 TAP_TAPCELL_ROW_36_246
*259 TAP_TAPCELL_ROW_37_247
*260 TAP_TAPCELL_ROW_37_248
*261 TAP_TAPCELL_ROW_37_249
*262 TAP_TAPCELL_ROW_37_250
*263 TAP_TAPCELL_ROW_37_251
*264 TAP_TAPCELL_ROW_37_252
*265 TAP_TAPCELL_ROW_38_253
*266 TAP_TAPCELL_ROW_38_254
*267 TAP_TAPCELL_ROW_38_255
*268 TAP_TAPCELL_ROW_38_256
*269 TAP_TAPCELL_ROW_38_257
*270 TAP_TAPCELL_ROW_38_258
*271 TAP_TAPCELL_ROW_38_259
*272 TAP_TAPCELL_ROW_39_260
*273 TAP_TAPCELL_ROW_39_261
*274 TAP_TAPCELL_ROW_39_262
*275 TAP_TAPCELL_ROW_39_263
*276 TAP_TAPCELL_ROW_39_264
*277 TAP_TAPCELL_ROW_39_265
*278 TAP_TAPCELL_ROW_40_266
*279 TAP_TAPCELL_ROW_40_267
*280 TAP_TAPCELL_ROW_40_268
*281 TAP_TAPCELL_ROW_40_269
*282 TAP_TAPCELL_ROW_40_270
*283 TAP_TAPCELL_ROW_40_271
*284 TAP_TAPCELL_ROW_40_272
*285 TAP_TAPCELL_ROW_41_273
*286 TAP_TAPCELL_ROW_41_274
*287 TAP_TAPCELL_ROW_41_275
*288 TAP_TAPCELL_ROW_41_276
*289 TAP_TAPCELL_ROW_41_277
*290 TAP_TAPCELL_ROW_41_278
*291 TAP_TAPCELL_ROW_42_279
*292 TAP_TAPCELL_ROW_42_280
*293 TAP_TAPCELL_ROW_42_281
*294 TAP_TAPCELL_ROW_42_282
*295 TAP_TAPCELL_ROW_42_283
*296 TAP_TAPCELL_ROW_42_284
*297 TAP_TAPCELL_ROW_42_285
*298 TAP_TAPCELL_ROW_43_286
*299 TAP_TAPCELL_ROW_43_287
*300 TAP_TAPCELL_ROW_43_288
*301 TAP_TAPCELL_ROW_43_289
*302 TAP_TAPCELL_ROW_43_290
*303 TAP_TAPCELL_ROW_43_291
*304 TAP_TAPCELL_ROW_44_292
*305 TAP_TAPCELL_ROW_44_293
*306 TAP_TAPCELL_ROW_44_294
*307 TAP_TAPCELL_ROW_44_295
*308 TAP_TAPCELL_ROW_44_296
*309 TAP_TAPCELL_ROW_44_297
*310 TAP_TAPCELL_ROW_44_298
*311 TAP_TAPCELL_ROW_45_299
*312 TAP_TAPCELL_ROW_45_300
*313 TAP_TAPCELL_ROW_45_301
*314 TAP_TAPCELL_ROW_45_302
*315 TAP_TAPCELL_ROW_45_303
*316 TAP_TAPCELL_ROW_45_304
*317 TAP_TAPCELL_ROW_46_305
*318 TAP_TAPCELL_ROW_46_306
*319 TAP_TAPCELL_ROW_46_307
*320 TAP_TAPCELL_ROW_46_308
*321 TAP_TAPCELL_ROW_46_309
*322 TAP_TAPCELL_ROW_46_310
*323 TAP_TAPCELL_ROW_46_311
*324 TAP_TAPCELL_ROW_47_312
*325 TAP_TAPCELL_ROW_47_313
*326 TAP_TAPCELL_ROW_47_314
*327 TAP_TAPCELL_ROW_47_315
*328 TAP_TAPCELL_ROW_47_316
*329 TAP_TAPCELL_ROW_47_317
*330 TAP_TAPCELL_ROW_48_318
*331 TAP_TAPCELL_ROW_48_319
*332 TAP_TAPCELL_ROW_48_320
*333 TAP_TAPCELL_ROW_48_321
*334 TAP_TAPCELL_ROW_48_322
*335 TAP_TAPCELL_ROW_48_323
*336 TAP_TAPCELL_ROW_48_324
*337 TAP_TAPCELL_ROW_49_325
*338 TAP_TAPCELL_ROW_49_326
*339 TAP_TAPCELL_ROW_49_327
*340 TAP_TAPCELL_ROW_49_328
*341 TAP_TAPCELL_ROW_49_329
*342 TAP_TAPCELL_ROW_49_330
*343 TAP_TAPCELL_ROW_50_331
*344 TAP_TAPCELL_ROW_50_332
*345 TAP_TAPCELL_ROW_50_333
*346 TAP_TAPCELL_ROW_50_334
*347 TAP_TAPCELL_ROW_50_335
*348 TAP_TAPCELL_ROW_50_336
*349 TAP_TAPCELL_ROW_50_337
*350 TAP_TAPCELL_ROW_51_338
*351 TAP_TAPCELL_ROW_51_339
*352 TAP_TAPCELL_ROW_51_340
*353 TAP_TAPCELL_ROW_51_341
*354 TAP_TAPCELL_ROW_51_342
*355 TAP_TAPCELL_ROW_51_343
*356 TAP_TAPCELL_ROW_52_344
*357 TAP_TAPCELL_ROW_52_345
*358 TAP_TAPCELL_ROW_52_346
*359 TAP_TAPCELL_ROW_52_347
*360 TAP_TAPCELL_ROW_52_348
*361 TAP_TAPCELL_ROW_52_349
*362 TAP_TAPCELL_ROW_52_350
*363 TAP_TAPCELL_ROW_53_351
*364 TAP_TAPCELL_ROW_53_352
*365 TAP_TAPCELL_ROW_53_353
*366 TAP_TAPCELL_ROW_53_354
*367 TAP_TAPCELL_ROW_53_355
*368 TAP_TAPCELL_ROW_53_356
*369 TAP_TAPCELL_ROW_54_357
*370 TAP_TAPCELL_ROW_54_358
*371 TAP_TAPCELL_ROW_54_359
*372 TAP_TAPCELL_ROW_54_360
*373 TAP_TAPCELL_ROW_54_361
*374 TAP_TAPCELL_ROW_54_362
*375 TAP_TAPCELL_ROW_54_363
*376 TAP_TAPCELL_ROW_55_364
*377 TAP_TAPCELL_ROW_55_365
*378 TAP_TAPCELL_ROW_55_366
*379 TAP_TAPCELL_ROW_55_367
*380 TAP_TAPCELL_ROW_55_368
*381 TAP_TAPCELL_ROW_55_369
*382 TAP_TAPCELL_ROW_56_370
*383 TAP_TAPCELL_ROW_56_371
*384 TAP_TAPCELL_ROW_56_372
*385 TAP_TAPCELL_ROW_56_373
*386 TAP_TAPCELL_ROW_56_374
*387 TAP_TAPCELL_ROW_56_375
*388 TAP_TAPCELL_ROW_56_376
*389 TAP_TAPCELL_ROW_57_377
*390 TAP_TAPCELL_ROW_57_378
*391 TAP_TAPCELL_ROW_57_379
*392 TAP_TAPCELL_ROW_57_380
*393 TAP_TAPCELL_ROW_57_381
*394 TAP_TAPCELL_ROW_57_382
*395 TAP_TAPCELL_ROW_58_383
*396 TAP_TAPCELL_ROW_58_384
*397 TAP_TAPCELL_ROW_58_385
*398 TAP_TAPCELL_ROW_58_386
*399 TAP_TAPCELL_ROW_58_387
*400 TAP_TAPCELL_ROW_58_388
*401 TAP_TAPCELL_ROW_58_389
*402 TAP_TAPCELL_ROW_59_390
*403 TAP_TAPCELL_ROW_59_391
*404 TAP_TAPCELL_ROW_59_392
*405 TAP_TAPCELL_ROW_59_393
*406 TAP_TAPCELL_ROW_59_394
*407 TAP_TAPCELL_ROW_59_395
*408 TAP_TAPCELL_ROW_60_396
*409 TAP_TAPCELL_ROW_60_397
*410 TAP_TAPCELL_ROW_60_398
*411 TAP_TAPCELL_ROW_60_399
*412 TAP_TAPCELL_ROW_60_400
*413 TAP_TAPCELL_ROW_60_401
*414 TAP_TAPCELL_ROW_60_402
*415 TAP_TAPCELL_ROW_61_403
*416 TAP_TAPCELL_ROW_61_404
*417 TAP_TAPCELL_ROW_61_405
*418 TAP_TAPCELL_ROW_61_406
*419 TAP_TAPCELL_ROW_61_407
*420 TAP_TAPCELL_ROW_61_408
*421 TAP_TAPCELL_ROW_62_409
*422 TAP_TAPCELL_ROW_62_410
*423 TAP_TAPCELL_ROW_62_411
*424 TAP_TAPCELL_ROW_62_412
*425 TAP_TAPCELL_ROW_62_413
*426 TAP_TAPCELL_ROW_62_414
*427 TAP_TAPCELL_ROW_62_415
*428 TAP_TAPCELL_ROW_63_416
*429 TAP_TAPCELL_ROW_63_417
*430 TAP_TAPCELL_ROW_63_418
*431 TAP_TAPCELL_ROW_63_419
*432 TAP_TAPCELL_ROW_63_420
*433 TAP_TAPCELL_ROW_63_421
*434 TAP_TAPCELL_ROW_64_422
*435 TAP_TAPCELL_ROW_64_423
*436 TAP_TAPCELL_ROW_64_424
*437 TAP_TAPCELL_ROW_64_425
*438 TAP_TAPCELL_ROW_64_426
*439 TAP_TAPCELL_ROW_64_427
*440 TAP_TAPCELL_ROW_64_428
*441 TAP_TAPCELL_ROW_64_429
*442 TAP_TAPCELL_ROW_64_430
*443 TAP_TAPCELL_ROW_64_431
*444 TAP_TAPCELL_ROW_64_432
*445 TAP_TAPCELL_ROW_64_433
*446 TAP_TAPCELL_ROW_64_434
*447 FILLER_0_16
*448 FILLER_0_24
*449 FILLER_0_28
*450 FILLER_0_31
*451 FILLER_0_39
*452 FILLER_0_47
*453 FILLER_0_55
*454 FILLER_0_59
*455 FILLER_0_61
*456 FILLER_0_69
*457 FILLER_0_77
*458 FILLER_0_85
*459 FILLER_0_89
*460 FILLER_0_91
*461 FILLER_0_99
*462 FILLER_0_107
*463 FILLER_0_115
*464 FILLER_0_119
*465 FILLER_0_121
*466 FILLER_0_129
*467 FILLER_0_143
*468 FILLER_0_147
*469 FILLER_0_149
*470 FILLER_0_151
*471 FILLER_0_159
*472 FILLER_0_167
*473 FILLER_0_175
*474 FILLER_0_179
*475 FILLER_0_181
*476 FILLER_0_189
*477 FILLER_0_197
*478 FILLER_0_205
*479 FILLER_0_209
*480 FILLER_0_211
*481 FILLER_0_219
*482 FILLER_0_227
*483 FILLER_0_235
*484 FILLER_0_239
*485 FILLER_0_241
*486 FILLER_0_249
*487 FILLER_0_257
*488 FILLER_0_265
*489 FILLER_0_269
*490 FILLER_0_271
*491 FILLER_0_279
*492 FILLER_0_287
*493 FILLER_0_295
*494 FILLER_0_299
*495 FILLER_0_301
*496 FILLER_0_309
*497 FILLER_0_317
*498 FILLER_0_325
*499 FILLER_0_329
*500 FILLER_0_331
*501 FILLER_0_339
*502 FILLER_0_347
*503 FILLER_0_355
*504 FILLER_0_359
*505 FILLER_0_361
*506 FILLER_0_369
*507 FILLER_0_377
*508 FILLER_0_385
*509 FILLER_0_389
*510 FILLER_1_0
*511 FILLER_1_8
*512 FILLER_1_16
*513 FILLER_1_24
*514 FILLER_1_32
*515 FILLER_1_40
*516 FILLER_1_48
*517 FILLER_1_56
*518 FILLER_1_61
*519 FILLER_1_69
*520 FILLER_1_77
*521 FILLER_1_85
*522 FILLER_1_93
*523 FILLER_1_101
*524 FILLER_1_109
*525 FILLER_1_117
*526 FILLER_1_119
*527 FILLER_1_121
*528 FILLER_1_129
*529 FILLER_1_137
*530 FILLER_1_145
*531 FILLER_1_153
*532 FILLER_1_161
*533 FILLER_1_169
*534 FILLER_1_177
*535 FILLER_1_179
*536 FILLER_1_181
*537 FILLER_1_189
*538 FILLER_1_197
*539 FILLER_1_205
*540 FILLER_1_213
*541 FILLER_1_221
*542 FILLER_1_229
*543 FILLER_1_237
*544 FILLER_1_239
*545 FILLER_1_241
*546 FILLER_1_249
*547 FILLER_1_257
*548 FILLER_1_265
*549 FILLER_1_273
*550 FILLER_1_281
*551 FILLER_1_289
*552 FILLER_1_297
*553 FILLER_1_299
*554 FILLER_1_301
*555 FILLER_1_309
*556 FILLER_1_317
*557 FILLER_1_325
*558 FILLER_1_333
*559 FILLER_1_341
*560 FILLER_1_349
*561 FILLER_1_357
*562 FILLER_1_359
*563 FILLER_1_361
*564 FILLER_1_369
*565 FILLER_1_377
*566 FILLER_1_385
*567 FILLER_1_389
*568 FILLER_2_0
*569 FILLER_2_8
*570 FILLER_2_16
*571 FILLER_2_24
*572 FILLER_2_28
*573 FILLER_2_31
*574 FILLER_2_39
*575 FILLER_2_47
*576 FILLER_2_55
*577 FILLER_2_63
*578 FILLER_2_71
*579 FILLER_2_79
*580 FILLER_2_87
*581 FILLER_2_89
*582 FILLER_2_91
*583 FILLER_2_99
*584 FILLER_2_107
*585 FILLER_2_115
*586 FILLER_2_123
*587 FILLER_2_131
*588 FILLER_2_139
*589 FILLER_2_147
*590 FILLER_2_149
*591 FILLER_2_151
*592 FILLER_2_159
*593 FILLER_2_167
*594 FILLER_2_175
*595 FILLER_2_183
*596 FILLER_2_191
*597 FILLER_2_199
*598 FILLER_2_207
*599 FILLER_2_209
*600 FILLER_2_211
*601 FILLER_2_219
*602 FILLER_2_227
*603 FILLER_2_235
*604 FILLER_2_243
*605 FILLER_2_251
*606 FILLER_2_259
*607 FILLER_2_267
*608 FILLER_2_269
*609 FILLER_2_271
*610 FILLER_2_279
*611 FILLER_2_287
*612 FILLER_2_295
*613 FILLER_2_303
*614 FILLER_2_311
*615 FILLER_2_319
*616 FILLER_2_327
*617 FILLER_2_329
*618 FILLER_2_331
*619 FILLER_2_339
*620 FILLER_2_347
*621 FILLER_2_355
*622 FILLER_2_363
*623 FILLER_2_371
*624 FILLER_2_379
*625 FILLER_2_387
*626 FILLER_2_389
*627 FILLER_3_0
*628 FILLER_3_8
*629 FILLER_3_16
*630 FILLER_3_24
*631 FILLER_3_32
*632 FILLER_3_40
*633 FILLER_3_48
*634 FILLER_3_56
*635 FILLER_3_61
*636 FILLER_3_69
*637 FILLER_3_77
*638 FILLER_3_85
*639 FILLER_3_93
*640 FILLER_3_101
*641 FILLER_3_109
*642 FILLER_3_117
*643 FILLER_3_119
*644 FILLER_3_121
*645 FILLER_3_129
*646 FILLER_3_137
*647 FILLER_3_145
*648 FILLER_3_153
*649 FILLER_3_161
*650 FILLER_3_169
*651 FILLER_3_177
*652 FILLER_3_179
*653 FILLER_3_181
*654 FILLER_3_189
*655 FILLER_3_197
*656 FILLER_3_205
*657 FILLER_3_213
*658 FILLER_3_221
*659 FILLER_3_229
*660 FILLER_3_237
*661 FILLER_3_239
*662 FILLER_3_241
*663 FILLER_3_249
*664 FILLER_3_257
*665 FILLER_3_265
*666 FILLER_3_273
*667 FILLER_3_281
*668 FILLER_3_289
*669 FILLER_3_297
*670 FILLER_3_299
*671 FILLER_3_301
*672 FILLER_3_309
*673 FILLER_3_317
*674 FILLER_3_325
*675 FILLER_3_333
*676 FILLER_3_341
*677 FILLER_3_349
*678 FILLER_3_357
*679 FILLER_3_359
*680 FILLER_3_361
*681 FILLER_3_369
*682 FILLER_3_377
*683 FILLER_3_385
*684 FILLER_3_389
*685 FILLER_4_0
*686 FILLER_4_8
*687 FILLER_4_16
*688 FILLER_4_24
*689 FILLER_4_28
*690 FILLER_4_31
*691 FILLER_4_39
*692 FILLER_4_47
*693 FILLER_4_55
*694 FILLER_4_63
*695 FILLER_4_71
*696 FILLER_4_79
*697 FILLER_4_87
*698 FILLER_4_89
*699 FILLER_4_91
*700 FILLER_4_99
*701 FILLER_4_107
*702 FILLER_4_115
*703 FILLER_4_123
*704 FILLER_4_131
*705 FILLER_4_139
*706 FILLER_4_147
*707 FILLER_4_149
*708 FILLER_4_151
*709 FILLER_4_159
*710 FILLER_4_167
*711 FILLER_4_175
*712 FILLER_4_183
*713 FILLER_4_191
*714 FILLER_4_199
*715 FILLER_4_207
*716 FILLER_4_209
*717 FILLER_4_211
*718 FILLER_4_219
*719 FILLER_4_227
*720 FILLER_4_235
*721 FILLER_4_243
*722 FILLER_4_251
*723 FILLER_4_259
*724 FILLER_4_267
*725 FILLER_4_269
*726 FILLER_4_271
*727 FILLER_4_279
*728 FILLER_4_287
*729 FILLER_4_295
*730 FILLER_4_303
*731 FILLER_4_311
*732 FILLER_4_319
*733 FILLER_4_327
*734 FILLER_4_329
*735 FILLER_4_331
*736 FILLER_4_339
*737 FILLER_4_347
*738 FILLER_4_355
*739 FILLER_4_363
*740 FILLER_4_371
*741 FILLER_4_379
*742 FILLER_4_387
*743 FILLER_4_389
*744 FILLER_5_0
*745 FILLER_5_8
*746 FILLER_5_16
*747 FILLER_5_24
*748 FILLER_5_32
*749 FILLER_5_40
*750 FILLER_5_48
*751 FILLER_5_56
*752 FILLER_5_61
*753 FILLER_5_69
*754 FILLER_5_77
*755 FILLER_5_85
*756 FILLER_5_93
*757 FILLER_5_101
*758 FILLER_5_109
*759 FILLER_5_117
*760 FILLER_5_119
*761 FILLER_5_121
*762 FILLER_5_129
*763 FILLER_5_137
*764 FILLER_5_145
*765 FILLER_5_153
*766 FILLER_5_161
*767 FILLER_5_169
*768 FILLER_5_177
*769 FILLER_5_179
*770 FILLER_5_181
*771 FILLER_5_189
*772 FILLER_5_197
*773 FILLER_5_205
*774 FILLER_5_213
*775 FILLER_5_221
*776 FILLER_5_229
*777 FILLER_5_237
*778 FILLER_5_239
*779 FILLER_5_241
*780 FILLER_5_249
*781 FILLER_5_257
*782 FILLER_5_265
*783 FILLER_5_273
*784 FILLER_5_281
*785 FILLER_5_289
*786 FILLER_5_297
*787 FILLER_5_299
*788 FILLER_5_301
*789 FILLER_5_309
*790 FILLER_5_317
*791 FILLER_5_325
*792 FILLER_5_333
*793 FILLER_5_341
*794 FILLER_5_349
*795 FILLER_5_357
*796 FILLER_5_359
*797 FILLER_5_361
*798 FILLER_5_369
*799 FILLER_5_377
*800 FILLER_5_385
*801 FILLER_5_389
*802 FILLER_6_0
*803 FILLER_6_8
*804 FILLER_6_16
*805 FILLER_6_24
*806 FILLER_6_28
*807 FILLER_6_31
*808 FILLER_6_39
*809 FILLER_6_47
*810 FILLER_6_55
*811 FILLER_6_63
*812 FILLER_6_71
*813 FILLER_6_79
*814 FILLER_6_87
*815 FILLER_6_89
*816 FILLER_6_91
*817 FILLER_6_99
*818 FILLER_6_107
*819 FILLER_6_115
*820 FILLER_6_123
*821 FILLER_6_131
*822 FILLER_6_139
*823 FILLER_6_147
*824 FILLER_6_149
*825 FILLER_6_151
*826 FILLER_6_159
*827 FILLER_6_167
*828 FILLER_6_175
*829 FILLER_6_183
*830 FILLER_6_191
*831 FILLER_6_199
*832 FILLER_6_207
*833 FILLER_6_209
*834 FILLER_6_211
*835 FILLER_6_219
*836 FILLER_6_227
*837 FILLER_6_235
*838 FILLER_6_243
*839 FILLER_6_251
*840 FILLER_6_259
*841 FILLER_6_267
*842 FILLER_6_269
*843 FILLER_6_271
*844 FILLER_6_279
*845 FILLER_6_287
*846 FILLER_6_295
*847 FILLER_6_303
*848 FILLER_6_311
*849 FILLER_6_319
*850 FILLER_6_327
*851 FILLER_6_329
*852 FILLER_6_331
*853 FILLER_6_339
*854 FILLER_6_347
*855 FILLER_6_355
*856 FILLER_6_363
*857 FILLER_6_371
*858 FILLER_6_379
*859 FILLER_6_387
*860 FILLER_6_389
*861 FILLER_7_0
*862 FILLER_7_8
*863 FILLER_7_16
*864 FILLER_7_24
*865 FILLER_7_32
*866 FILLER_7_40
*867 FILLER_7_48
*868 FILLER_7_56
*869 FILLER_7_61
*870 FILLER_7_69
*871 FILLER_7_77
*872 FILLER_7_85
*873 FILLER_7_93
*874 FILLER_7_101
*875 FILLER_7_109
*876 FILLER_7_117
*877 FILLER_7_119
*878 FILLER_7_121
*879 FILLER_7_129
*880 FILLER_7_137
*881 FILLER_7_145
*882 FILLER_7_153
*883 FILLER_7_161
*884 FILLER_7_169
*885 FILLER_7_177
*886 FILLER_7_179
*887 FILLER_7_181
*888 FILLER_7_189
*889 FILLER_7_197
*890 FILLER_7_205
*891 FILLER_7_213
*892 FILLER_7_221
*893 FILLER_7_229
*894 FILLER_7_237
*895 FILLER_7_239
*896 FILLER_7_241
*897 FILLER_7_249
*898 FILLER_7_257
*899 FILLER_7_265
*900 FILLER_7_273
*901 FILLER_7_281
*902 FILLER_7_289
*903 FILLER_7_297
*904 FILLER_7_299
*905 FILLER_7_301
*906 FILLER_7_309
*907 FILLER_7_317
*908 FILLER_7_325
*909 FILLER_7_333
*910 FILLER_7_341
*911 FILLER_7_349
*912 FILLER_7_357
*913 FILLER_7_359
*914 FILLER_7_361
*915 FILLER_7_369
*916 FILLER_7_377
*917 FILLER_7_385
*918 FILLER_7_389
*919 FILLER_8_0
*920 FILLER_8_8
*921 FILLER_8_16
*922 FILLER_8_24
*923 FILLER_8_28
*924 FILLER_8_31
*925 FILLER_8_39
*926 FILLER_8_47
*927 FILLER_8_55
*928 FILLER_8_63
*929 FILLER_8_71
*930 FILLER_8_79
*931 FILLER_8_87
*932 FILLER_8_89
*933 FILLER_8_91
*934 FILLER_8_99
*935 FILLER_8_107
*936 FILLER_8_115
*937 FILLER_8_123
*938 FILLER_8_131
*939 FILLER_8_139
*940 FILLER_8_147
*941 FILLER_8_149
*942 FILLER_8_151
*943 FILLER_8_159
*944 FILLER_8_167
*945 FILLER_8_175
*946 FILLER_8_183
*947 FILLER_8_191
*948 FILLER_8_199
*949 FILLER_8_207
*950 FILLER_8_209
*951 FILLER_8_211
*952 FILLER_8_219
*953 FILLER_8_227
*954 FILLER_8_235
*955 FILLER_8_243
*956 FILLER_8_251
*957 FILLER_8_259
*958 FILLER_8_267
*959 FILLER_8_269
*960 FILLER_8_271
*961 FILLER_8_279
*962 FILLER_8_287
*963 FILLER_8_295
*964 FILLER_8_303
*965 FILLER_8_311
*966 FILLER_8_319
*967 FILLER_8_327
*968 FILLER_8_329
*969 FILLER_8_331
*970 FILLER_8_339
*971 FILLER_8_347
*972 FILLER_8_355
*973 FILLER_8_363
*974 FILLER_8_371
*975 FILLER_8_379
*976 FILLER_8_387
*977 FILLER_8_389
*978 FILLER_9_0
*979 FILLER_9_8
*980 FILLER_9_16
*981 FILLER_9_24
*982 FILLER_9_32
*983 FILLER_9_40
*984 FILLER_9_48
*985 FILLER_9_56
*986 FILLER_9_61
*987 FILLER_9_69
*988 FILLER_9_77
*989 FILLER_9_85
*990 FILLER_9_93
*991 FILLER_9_101
*992 FILLER_9_109
*993 FILLER_9_117
*994 FILLER_9_119
*995 FILLER_9_121
*996 FILLER_9_129
*997 FILLER_9_137
*998 FILLER_9_145
*999 FILLER_9_153
*1000 FILLER_9_161
*1001 FILLER_9_169
*1002 FILLER_9_177
*1003 FILLER_9_179
*1004 FILLER_9_181
*1005 FILLER_9_189
*1006 FILLER_9_197
*1007 FILLER_9_205
*1008 FILLER_9_213
*1009 FILLER_9_221
*1010 FILLER_9_229
*1011 FILLER_9_237
*1012 FILLER_9_239
*1013 FILLER_9_241
*1014 FILLER_9_249
*1015 FILLER_9_257
*1016 FILLER_9_265
*1017 FILLER_9_273
*1018 FILLER_9_281
*1019 FILLER_9_289
*1020 FILLER_9_297
*1021 FILLER_9_299
*1022 FILLER_9_301
*1023 FILLER_9_309
*1024 FILLER_9_317
*1025 FILLER_9_325
*1026 FILLER_9_333
*1027 FILLER_9_341
*1028 FILLER_9_349
*1029 FILLER_9_357
*1030 FILLER_9_359
*1031 FILLER_9_361
*1032 FILLER_9_369
*1033 FILLER_9_377
*1034 FILLER_9_385
*1035 FILLER_9_389
*1036 FILLER_10_0
*1037 FILLER_10_8
*1038 FILLER_10_16
*1039 FILLER_10_24
*1040 FILLER_10_28
*1041 FILLER_10_31
*1042 FILLER_10_39
*1043 FILLER_10_47
*1044 FILLER_10_55
*1045 FILLER_10_63
*1046 FILLER_10_71
*1047 FILLER_10_79
*1048 FILLER_10_87
*1049 FILLER_10_89
*1050 FILLER_10_91
*1051 FILLER_10_99
*1052 FILLER_10_107
*1053 FILLER_10_115
*1054 FILLER_10_123
*1055 FILLER_10_131
*1056 FILLER_10_139
*1057 FILLER_10_147
*1058 FILLER_10_149
*1059 FILLER_10_151
*1060 FILLER_10_159
*1061 FILLER_10_167
*1062 FILLER_10_175
*1063 FILLER_10_183
*1064 FILLER_10_191
*1065 FILLER_10_199
*1066 FILLER_10_207
*1067 FILLER_10_209
*1068 FILLER_10_211
*1069 FILLER_10_219
*1070 FILLER_10_227
*1071 FILLER_10_235
*1072 FILLER_10_243
*1073 FILLER_10_251
*1074 FILLER_10_259
*1075 FILLER_10_267
*1076 FILLER_10_269
*1077 FILLER_10_271
*1078 FILLER_10_279
*1079 FILLER_10_287
*1080 FILLER_10_295
*1081 FILLER_10_303
*1082 FILLER_10_311
*1083 FILLER_10_319
*1084 FILLER_10_327
*1085 FILLER_10_329
*1086 FILLER_10_331
*1087 FILLER_10_339
*1088 FILLER_10_347
*1089 FILLER_10_355
*1090 FILLER_10_363
*1091 FILLER_10_371
*1092 FILLER_10_379
*1093 FILLER_10_387
*1094 FILLER_10_389
*1095 FILLER_11_0
*1096 FILLER_11_8
*1097 FILLER_11_16
*1098 FILLER_11_24
*1099 FILLER_11_32
*1100 FILLER_11_40
*1101 FILLER_11_48
*1102 FILLER_11_56
*1103 FILLER_11_61
*1104 FILLER_11_69
*1105 FILLER_11_77
*1106 FILLER_11_85
*1107 FILLER_11_93
*1108 FILLER_11_101
*1109 FILLER_11_109
*1110 FILLER_11_117
*1111 FILLER_11_119
*1112 FILLER_11_121
*1113 FILLER_11_129
*1114 FILLER_11_137
*1115 FILLER_11_145
*1116 FILLER_11_153
*1117 FILLER_11_161
*1118 FILLER_11_169
*1119 FILLER_11_177
*1120 FILLER_11_179
*1121 FILLER_11_181
*1122 FILLER_11_189
*1123 FILLER_11_197
*1124 FILLER_11_205
*1125 FILLER_11_213
*1126 FILLER_11_221
*1127 FILLER_11_229
*1128 FILLER_11_237
*1129 FILLER_11_239
*1130 FILLER_11_241
*1131 FILLER_11_249
*1132 FILLER_11_257
*1133 FILLER_11_265
*1134 FILLER_11_273
*1135 FILLER_11_281
*1136 FILLER_11_289
*1137 FILLER_11_297
*1138 FILLER_11_299
*1139 FILLER_11_301
*1140 FILLER_11_309
*1141 FILLER_11_317
*1142 FILLER_11_325
*1143 FILLER_11_333
*1144 FILLER_11_341
*1145 FILLER_11_349
*1146 FILLER_11_357
*1147 FILLER_11_359
*1148 FILLER_11_361
*1149 FILLER_11_369
*1150 FILLER_11_377
*1151 FILLER_11_385
*1152 FILLER_11_389
*1153 FILLER_12_0
*1154 FILLER_12_8
*1155 FILLER_12_16
*1156 FILLER_12_24
*1157 FILLER_12_28
*1158 FILLER_12_31
*1159 FILLER_12_39
*1160 FILLER_12_47
*1161 FILLER_12_55
*1162 FILLER_12_63
*1163 FILLER_12_71
*1164 FILLER_12_79
*1165 FILLER_12_87
*1166 FILLER_12_89
*1167 FILLER_12_91
*1168 FILLER_12_99
*1169 FILLER_12_107
*1170 FILLER_12_115
*1171 FILLER_12_123
*1172 FILLER_12_131
*1173 FILLER_12_139
*1174 FILLER_12_147
*1175 FILLER_12_149
*1176 FILLER_12_151
*1177 FILLER_12_159
*1178 FILLER_12_167
*1179 FILLER_12_175
*1180 FILLER_12_183
*1181 FILLER_12_191
*1182 FILLER_12_199
*1183 FILLER_12_207
*1184 FILLER_12_209
*1185 FILLER_12_211
*1186 FILLER_12_219
*1187 FILLER_12_227
*1188 FILLER_12_235
*1189 FILLER_12_243
*1190 FILLER_12_251
*1191 FILLER_12_259
*1192 FILLER_12_267
*1193 FILLER_12_269
*1194 FILLER_12_271
*1195 FILLER_12_279
*1196 FILLER_12_287
*1197 FILLER_12_295
*1198 FILLER_12_303
*1199 FILLER_12_311
*1200 FILLER_12_319
*1201 FILLER_12_327
*1202 FILLER_12_329
*1203 FILLER_12_331
*1204 FILLER_12_339
*1205 FILLER_12_347
*1206 FILLER_12_355
*1207 FILLER_12_363
*1208 FILLER_12_371
*1209 FILLER_12_379
*1210 FILLER_12_387
*1211 FILLER_12_389
*1212 FILLER_13_0
*1213 FILLER_13_8
*1214 FILLER_13_16
*1215 FILLER_13_24
*1216 FILLER_13_32
*1217 FILLER_13_40
*1218 FILLER_13_48
*1219 FILLER_13_56
*1220 FILLER_13_61
*1221 FILLER_13_69
*1222 FILLER_13_77
*1223 FILLER_13_85
*1224 FILLER_13_93
*1225 FILLER_13_101
*1226 FILLER_13_109
*1227 FILLER_13_117
*1228 FILLER_13_119
*1229 FILLER_13_121
*1230 FILLER_13_129
*1231 FILLER_13_137
*1232 FILLER_13_145
*1233 FILLER_13_153
*1234 FILLER_13_161
*1235 FILLER_13_169
*1236 FILLER_13_177
*1237 FILLER_13_179
*1238 FILLER_13_181
*1239 FILLER_13_189
*1240 FILLER_13_197
*1241 FILLER_13_205
*1242 FILLER_13_213
*1243 FILLER_13_221
*1244 FILLER_13_229
*1245 FILLER_13_237
*1246 FILLER_13_239
*1247 FILLER_13_241
*1248 FILLER_13_249
*1249 FILLER_13_257
*1250 FILLER_13_265
*1251 FILLER_13_273
*1252 FILLER_13_281
*1253 FILLER_13_289
*1254 FILLER_13_297
*1255 FILLER_13_299
*1256 FILLER_13_301
*1257 FILLER_13_309
*1258 FILLER_13_317
*1259 FILLER_13_325
*1260 FILLER_13_333
*1261 FILLER_13_341
*1262 FILLER_13_349
*1263 FILLER_13_357
*1264 FILLER_13_359
*1265 FILLER_13_361
*1266 FILLER_13_369
*1267 FILLER_13_377
*1268 FILLER_13_385
*1269 FILLER_13_389
*1270 FILLER_14_0
*1271 FILLER_14_8
*1272 FILLER_14_16
*1273 FILLER_14_24
*1274 FILLER_14_28
*1275 FILLER_14_31
*1276 FILLER_14_39
*1277 FILLER_14_47
*1278 FILLER_14_55
*1279 FILLER_14_63
*1280 FILLER_14_71
*1281 FILLER_14_79
*1282 FILLER_14_87
*1283 FILLER_14_89
*1284 FILLER_14_91
*1285 FILLER_14_99
*1286 FILLER_14_107
*1287 FILLER_14_115
*1288 FILLER_14_123
*1289 FILLER_14_131
*1290 FILLER_14_139
*1291 FILLER_14_147
*1292 FILLER_14_149
*1293 FILLER_14_151
*1294 FILLER_14_159
*1295 FILLER_14_167
*1296 FILLER_14_175
*1297 FILLER_14_183
*1298 FILLER_14_191
*1299 FILLER_14_199
*1300 FILLER_14_207
*1301 FILLER_14_209
*1302 FILLER_14_211
*1303 FILLER_14_219
*1304 FILLER_14_227
*1305 FILLER_14_235
*1306 FILLER_14_243
*1307 FILLER_14_251
*1308 FILLER_14_259
*1309 FILLER_14_267
*1310 FILLER_14_269
*1311 FILLER_14_271
*1312 FILLER_14_279
*1313 FILLER_14_287
*1314 FILLER_14_295
*1315 FILLER_14_303
*1316 FILLER_14_311
*1317 FILLER_14_319
*1318 FILLER_14_327
*1319 FILLER_14_329
*1320 FILLER_14_331
*1321 FILLER_14_339
*1322 FILLER_14_347
*1323 FILLER_14_355
*1324 FILLER_14_363
*1325 FILLER_14_371
*1326 FILLER_14_379
*1327 FILLER_14_387
*1328 FILLER_14_389
*1329 FILLER_15_0
*1330 FILLER_15_8
*1331 FILLER_15_16
*1332 FILLER_15_24
*1333 FILLER_15_32
*1334 FILLER_15_40
*1335 FILLER_15_48
*1336 FILLER_15_56
*1337 FILLER_15_61
*1338 FILLER_15_69
*1339 FILLER_15_77
*1340 FILLER_15_85
*1341 FILLER_15_93
*1342 FILLER_15_101
*1343 FILLER_15_109
*1344 FILLER_15_117
*1345 FILLER_15_119
*1346 FILLER_15_121
*1347 FILLER_15_129
*1348 FILLER_15_137
*1349 FILLER_15_145
*1350 FILLER_15_153
*1351 FILLER_15_161
*1352 FILLER_15_169
*1353 FILLER_15_177
*1354 FILLER_15_179
*1355 FILLER_15_181
*1356 FILLER_15_189
*1357 FILLER_15_197
*1358 FILLER_15_205
*1359 FILLER_15_213
*1360 FILLER_15_221
*1361 FILLER_15_229
*1362 FILLER_15_237
*1363 FILLER_15_239
*1364 FILLER_15_241
*1365 FILLER_15_249
*1366 FILLER_15_257
*1367 FILLER_15_265
*1368 FILLER_15_273
*1369 FILLER_15_281
*1370 FILLER_15_289
*1371 FILLER_15_297
*1372 FILLER_15_299
*1373 FILLER_15_301
*1374 FILLER_15_309
*1375 FILLER_15_317
*1376 FILLER_15_325
*1377 FILLER_15_333
*1378 FILLER_15_341
*1379 FILLER_15_349
*1380 FILLER_15_357
*1381 FILLER_15_359
*1382 FILLER_15_361
*1383 FILLER_15_369
*1384 FILLER_15_377
*1385 FILLER_15_385
*1386 FILLER_15_389
*1387 FILLER_16_0
*1388 FILLER_16_8
*1389 FILLER_16_16
*1390 FILLER_16_24
*1391 FILLER_16_28
*1392 FILLER_16_31
*1393 FILLER_16_39
*1394 FILLER_16_47
*1395 FILLER_16_55
*1396 FILLER_16_63
*1397 FILLER_16_71
*1398 FILLER_16_79
*1399 FILLER_16_87
*1400 FILLER_16_89