*SPEF "ieee 1481-1999"
*DESIGN "comb_adder8"
*DATE "23:18:56 Tuesday April 21, 2026"
*VENDOR "The OpenROAD Project"
*PROGRAM "OpenROAD"
*VERSION "26Q2-209-g0d9d73ffba"
*DESIGN_FLOW "NAME_SCOPE LOCAL" "PIN_CAP NONE"
*DIVIDER /
*DELIMITER :
*BUS_DELIMITER []
*T_UNIT 1 NS
*C_UNIT 1 PF
*R_UNIT 1 OHM
*L_UNIT 1 HENRY

*NAME_MAP
*1 _00_
*2 _01_
*3 _02_
*4 _03_
*5 _04_
*6 _05_
*7 _06_
*8 _07_
*9 _08_
*10 _09_
*11 _10_
*12 _11_
*13 _12_
*14 _13_
*15 _14_
*16 _15_
*17 _16_
*18 _17_
*19 _18_
*20 _19_
*21 _20_
*22 _21_
*23 _22_
*24 _23_
*25 _24_
*26 _25_
*27 _26_
*28 _27_
*29 _28_
*30 _29_
*31 _30_
*32 _31_
*33 _32_
*34 _33_
*35 _34_
*36 net1
*37 net2
*38 net3
*39 net4
*40 net5
*41 net6
*42 net7
*43 net8
*44 net9
*45 net10
*46 net11
*47 net12
*48 net13
*49 net14
*50 net15
*51 net16
*52 net17
*53 net18
*54 net19
*55 net20
*56 net21
*57 net22
*58 net23
*59 net24
*62 a[0]
*63 a[1]
*64 a[2]
*65 a[3]
*66 a[4]
*67 a[5]
*68 a[6]
*69 a[7]
*70 b[0]
*71 b[1]
*72 b[2]
*73 b[3]
*74 b[4]
*75 b[5]
*76 b[6]
*77 b[7]
*78 y[0]
*79 y[1]
*80 y[2]
*81 y[3]
*82 y[4]
*83 y[5]
*84 y[6]
*85 y[7]
*86 _35_
*87 _36_
*88 _37_
*89 _38_
*90 _39_
*91 _40_
*92 _41_
*93 _42_
*94 _43_
*95 _44_
*96 _45_
*97 _46_
*98 _47_
*99 _48_
*100 _49_
*101 _50_
*102 _51_
*103 _52_
*104 _53_
*105 _54_
*106 _55_
*107 _56_
*108 _57_
*109 _58_
*110 _59_
*111 _60_
*112 _61_
*113 _62_
*114 _63_
*115 _64_
*116 _65_
*117 _66_
*118 _67_
*119 _68_
*120 _69_
*121 TAP_TAPCELL_ROW_0_0
*122 TAP_TAPCELL_ROW_0_1
*123 TAP_TAPCELL_ROW_0_2
*124 TAP_TAPCELL_ROW_0_3
*125 TAP_TAPCELL_ROW_0_4
*126 TAP_TAPCELL_ROW_0_5
*127 TAP_TAPCELL_ROW_0_6
*128 TAP_TAPCELL_ROW_0_7
*129 TAP_TAPCELL_ROW_0_8
*130 TAP_TAPCELL_ROW_0_9
*131 TAP_TAPCELL_ROW_0_10
*132 TAP_TAPCELL_ROW_0_11
*133 TAP_TAPCELL_ROW_0_12
*134 TAP_TAPCELL_ROW_1_13
*135 TAP_TAPCELL_ROW_1_14
*136 TAP_TAPCELL_ROW_1_15
*137 TAP_TAPCELL_ROW_1_16
*138 TAP_TAPCELL_ROW_1_17
*139 TAP_TAPCELL_ROW_1_18
*140 TAP_TAPCELL_ROW_2_19
*141 TAP_TAPCELL_ROW_2_20
*142 TAP_TAPCELL_ROW_2_21
*143 TAP_TAPCELL_ROW_2_22
*144 TAP_TAPCELL_ROW_2_23
*145 TAP_TAPCELL_ROW_2_24
*146 TAP_TAPCELL_ROW_2_25
*147 TAP_TAPCELL_ROW_3_26
*148 TAP_TAPCELL_ROW_3_27
*149 TAP_TAPCELL_ROW_3_28
*150 TAP_TAPCELL_ROW_3_29
*151 TAP_TAPCELL_ROW_3_30
*152 TAP_TAPCELL_ROW_3_31
*153 TAP_TAPCELL_ROW_4_32
*154 TAP_TAPCELL_ROW_4_33
*155 TAP_TAPCELL_ROW_4_34
*156 TAP_TAPCELL_ROW_4_35
*157 TAP_TAPCELL_ROW_4_36
*158 TAP_TAPCELL_ROW_4_37
*159 TAP_TAPCELL_ROW_4_38
*160 TAP_TAPCELL_ROW_5_39
*161 TAP_TAPCELL_ROW_5_40
*162 TAP_TAPCELL_ROW_5_41
*163 TAP_TAPCELL_ROW_5_42
*164 TAP_TAPCELL_ROW_5_43
*165 TAP_TAPCELL_ROW_5_44
*166 TAP_TAPCELL_ROW_6_45
*167 TAP_TAPCELL_ROW_6_46
*168 TAP_TAPCELL_ROW_6_47
*169 TAP_TAPCELL_ROW_6_48
*170 TAP_TAPCELL_ROW_6_49
*171 TAP_TAPCELL_ROW_6_50
*172 TAP_TAPCELL_ROW_6_51
*173 TAP_TAPCELL_ROW_7_52
*174 TAP_TAPCELL_ROW_7_53
*175 TAP_TAPCELL_ROW_7_54
*176 TAP_TAPCELL_ROW_7_55
*177 TAP_TAPCELL_ROW_7_56
*178 TAP_TAPCELL_ROW_7_57
*179 TAP_TAPCELL_ROW_8_58
*180 TAP_TAPCELL_ROW_8_59
*181 TAP_TAPCELL_ROW_8_60
*182 TAP_TAPCELL_ROW_8_61
*183 TAP_TAPCELL_ROW_8_62
*184 TAP_TAPCELL_ROW_8_63
*185 TAP_TAPCELL_ROW_8_64
*186 TAP_TAPCELL_ROW_9_65
*187 TAP_TAPCELL_ROW_9_66
*188 TAP_TAPCELL_ROW_9_67
*189 TAP_TAPCELL_ROW_9_68
*190 TAP_TAPCELL_ROW_9_69
*191 TAP_TAPCELL_ROW_9_70
*192 TAP_TAPCELL_ROW_10_71
*193 TAP_TAPCELL_ROW_10_72
*194 TAP_TAPCELL_ROW_10_73
*195 TAP_TAPCELL_ROW_10_74
*196 TAP_TAPCELL_ROW_10_75
*197 TAP_TAPCELL_ROW_10_76
*198 TAP_TAPCELL_ROW_10_77
*199 TAP_TAPCELL_ROW_11_78
*200 TAP_TAPCELL_ROW_11_79
*201 TAP_TAPCELL_ROW_11_80
*202 TAP_TAPCELL_ROW_11_81
*203 TAP_TAPCELL_ROW_11_82
*204 TAP_TAPCELL_ROW_11_83
*205 TAP_TAPCELL_ROW_12_84
*206 TAP_TAPCELL_ROW_12_85
*207 TAP_TAPCELL_ROW_12_86
*208 TAP_TAPCELL_ROW_12_87
*209 TAP_TAPCELL_ROW_12_88
*210 TAP_TAPCELL_ROW_12_89
*211 TAP_TAPCELL_ROW_12_90
*212 TAP_TAPCELL_ROW_13_91
*213 TAP_TAPCELL_ROW_13_92
*214 TAP_TAPCELL_ROW_13_93
*215 TAP_TAPCELL_ROW_13_94
*216 TAP_TAPCELL_ROW_13_95
*217 TAP_TAPCELL_ROW_13_96
*218 TAP_TAPCELL_ROW_14_97
*219 TAP_TAPCELL_ROW_14_98
*220 TAP_TAPCELL_ROW_14_99
*221 TAP_TAPCELL_ROW_14_100
*222 TAP_TAPCELL_ROW_14_101
*223 TAP_TAPCELL_ROW_14_102
*224 TAP_TAPCELL_ROW_14_103
*225 TAP_TAPCELL_ROW_15_104
*226 TAP_TAPCELL_ROW_15_105
*227 TAP_TAPCELL_ROW_15_106
*228 TAP_TAPCELL_ROW_15_107
*229 TAP_TAPCELL_ROW_15_108
*230 TAP_TAPCELL_ROW_15_109
*231 TAP_TAPCELL_ROW_16_110
*232 TAP_TAPCELL_ROW_16_111
*233 TAP_TAPCELL_ROW_16_112
*234 TAP_TAPCELL_ROW_16_113
*235 TAP_TAPCELL_ROW_16_114
*236 TAP_TAPCELL_ROW_16_115
*237 TAP_TAPCELL_ROW_16_116
*238 TAP_TAPCELL_ROW_17_117
*239 TAP_TAPCELL_ROW_17_118
*240 TAP_TAPCELL_ROW_17_119
*241 TAP_TAPCELL_ROW_17_120
*242 TAP_TAPCELL_ROW_17_121
*243 TAP_TAPCELL_ROW_17_122
*244 TAP_TAPCELL_ROW_18_123
*245 TAP_TAPCELL_ROW_18_124
*246 TAP_TAPCELL_ROW_18_125
*247 TAP_TAPCELL_ROW_18_126
*248 TAP_TAPCELL_ROW_18_127
*249 TAP_TAPCELL_ROW_18_128
*250 TAP_TAPCELL_ROW_18_129
*251 TAP_TAPCELL_ROW_19_130
*252 TAP_TAPCELL_ROW_19_131
*253 TAP_TAPCELL_ROW_19_132
*254 TAP_TAPCELL_ROW_19_133
*255 TAP_TAPCELL_ROW_19_134
*256 TAP_TAPCELL_ROW_19_135
*257 TAP_TAPCELL_ROW_20_136
*258 TAP_TAPCELL_ROW_20_137
*259 TAP_TAPCELL_ROW_20_138
*260 TAP_TAPCELL_ROW_20_139
*261 TAP_TAPCELL_ROW_20_140
*262 TAP_TAPCELL_ROW_20_141
*263 TAP_TAPCELL_ROW_20_142
*264 TAP_TAPCELL_ROW_21_143
*265 TAP_TAPCELL_ROW_21_144
*266 TAP_TAPCELL_ROW_21_145
*267 TAP_TAPCELL_ROW_21_146
*268 TAP_TAPCELL_ROW_21_147
*269 TAP_TAPCELL_ROW_21_148
*270 TAP_TAPCELL_ROW_22_149
*271 TAP_TAPCELL_ROW_22_150
*272 TAP_TAPCELL_ROW_22_151
*273 TAP_TAPCELL_ROW_22_152
*274 TAP_TAPCELL_ROW_22_153
*275 TAP_TAPCELL_ROW_22_154
*276 TAP_TAPCELL_ROW_22_155
*277 TAP_TAPCELL_ROW_23_156
*278 TAP_TAPCELL_ROW_23_157
*279 TAP_TAPCELL_ROW_23_158
*280 TAP_TAPCELL_ROW_23_159
*281 TAP_TAPCELL_ROW_23_160
*282 TAP_TAPCELL_ROW_23_161
*283 TAP_TAPCELL_ROW_24_162
*284 TAP_TAPCELL_ROW_24_163
*285 TAP_TAPCELL_ROW_24_164
*286 TAP_TAPCELL_ROW_24_165
*287 TAP_TAPCELL_ROW_24_166
*288 TAP_TAPCELL_ROW_24_167
*289 TAP_TAPCELL_ROW_24_168
*290 TAP_TAPCELL_ROW_25_169
*291 TAP_TAPCELL_ROW_25_170
*292 TAP_TAPCELL_ROW_25_171
*293 TAP_TAPCELL_ROW_25_172
*294 TAP_TAPCELL_ROW_25_173
*295 TAP_TAPCELL_ROW_25_174
*296 TAP_TAPCELL_ROW_26_175
*297 TAP_TAPCELL_ROW_26_176
*298 TAP_TAPCELL_ROW_26_177
*299 TAP_TAPCELL_ROW_26_178
*300 TAP_TAPCELL_ROW_26_179
*301 TAP_TAPCELL_ROW_26_180
*302 TAP_TAPCELL_ROW_26_181
*303 TAP_TAPCELL_ROW_27_182
*304 TAP_TAPCELL_ROW_27_183
*305 TAP_TAPCELL_ROW_27_184
*306 TAP_TAPCELL_ROW_27_185
*307 TAP_TAPCELL_ROW_27_186
*308 TAP_TAPCELL_ROW_27_187
*309 TAP_TAPCELL_ROW_28_188
*310 TAP_TAPCELL_ROW_28_189
*311 TAP_TAPCELL_ROW_28_190
*312 TAP_TAPCELL_ROW_28_191
*313 TAP_TAPCELL_ROW_28_192
*314 TAP_TAPCELL_ROW_28_193
*315 TAP_TAPCELL_ROW_28_194
*316 TAP_TAPCELL_ROW_29_195
*317 TAP_TAPCELL_ROW_29_196
*318 TAP_TAPCELL_ROW_29_197
*319 TAP_TAPCELL_ROW_29_198
*320 TAP_TAPCELL_ROW_29_199
*321 TAP_TAPCELL_ROW_29_200
*322 TAP_TAPCELL_ROW_30_201
*323 TAP_TAPCELL_ROW_30_202
*324 TAP_TAPCELL_ROW_30_203
*325 TAP_TAPCELL_ROW_30_204
*326 TAP_TAPCELL_ROW_30_205
*327 TAP_TAPCELL_ROW_30_206
*328 TAP_TAPCELL_ROW_30_207
*329 TAP_TAPCELL_ROW_31_208
*330 TAP_TAPCELL_ROW_31_209
*331 TAP_TAPCELL_ROW_31_210
*332 TAP_TAPCELL_ROW_31_211
*333 TAP_TAPCELL_ROW_31_212
*334 TAP_TAPCELL_ROW_31_213
*335 TAP_TAPCELL_ROW_32_214
*336 TAP_TAPCELL_ROW_32_215
*337 TAP_TAPCELL_ROW_32_216
*338 TAP_TAPCELL_ROW_32_217
*339 TAP_TAPCELL_ROW_32_218
*340 TAP_TAPCELL_ROW_32_219
*341 TAP_TAPCELL_ROW_32_220
*342 TAP_TAPCELL_ROW_33_221
*343 TAP_TAPCELL_ROW_33_222
*344 TAP_TAPCELL_ROW_33_223
*345 TAP_TAPCELL_ROW_33_224
*346 TAP_TAPCELL_ROW_33_225
*347 TAP_TAPCELL_ROW_33_226
*348 TAP_TAPCELL_ROW_34_227
*349 TAP_TAPCELL_ROW_34_228
*350 TAP_TAPCELL_ROW_34_229
*351 TAP_TAPCELL_ROW_34_230
*352 TAP_TAPCELL_ROW_34_231
*353 TAP_TAPCELL_ROW_34_232
*354 TAP_TAPCELL_ROW_34_233
*355 TAP_TAPCELL_ROW_35_234
*356 TAP_TAPCELL_ROW_35_235
*357 TAP_TAPCELL_ROW_35_236
*358 TAP_TAPCELL_ROW_35_237
*359 TAP_TAPCELL_ROW_35_238
*360 TAP_TAPCELL_ROW_35_239
*361 TAP_TAPCELL_ROW_36_240
*362 TAP_TAPCELL_ROW_36_241
*363 TAP_TAPCELL_ROW_36_242
*364 TAP_TAPCELL_ROW_36_243
*365 TAP_TAPCELL_ROW_36_244
*366 TAP_TAPCELL_ROW_36_245
*367 TAP_TAPCELL_ROW_36_246
*368 TAP_TAPCELL_ROW_37_247
*369 TAP_TAPCELL_ROW_37_248
*370 TAP_TAPCELL_ROW_37_249
*371 TAP_TAPCELL_ROW_37_250
*372 TAP_TAPCELL_ROW_37_251
*373 TAP_TAPCELL_ROW_37_252
*374 TAP_TAPCELL_ROW_38_253
*375 TAP_TAPCELL_ROW_38_254
*376 TAP_TAPCELL_ROW_38_255
*377 TAP_TAPCELL_ROW_38_256
*378 TAP_TAPCELL_ROW_38_257
*379 TAP_TAPCELL_ROW_38_258
*380 TAP_TAPCELL_ROW_38_259
*381 TAP_TAPCELL_ROW_39_260
*382 TAP_TAPCELL_ROW_39_261
*383 TAP_TAPCELL_ROW_39_262
*384 TAP_TAPCELL_ROW_39_263
*385 TAP_TAPCELL_ROW_39_264
*386 TAP_TAPCELL_ROW_39_265
*387 TAP_TAPCELL_ROW_40_266
*388 TAP_TAPCELL_ROW_40_267
*389 TAP_TAPCELL_ROW_40_268
*390 TAP_TAPCELL_ROW_40_269
*391 TAP_TAPCELL_ROW_40_270
*392 TAP_TAPCELL_ROW_40_271
*393 TAP_TAPCELL_ROW_40_272
*394 TAP_TAPCELL_ROW_41_273
*395 TAP_TAPCELL_ROW_41_274
*396 TAP_TAPCELL_ROW_41_275
*397 TAP_TAPCELL_ROW_41_276
*398 TAP_TAPCELL_ROW_41_277
*399 TAP_TAPCELL_ROW_41_278
*400 TAP_TAPCELL_ROW_42_279
*401 TAP_TAPCELL_ROW_42_280
*402 TAP_TAPCELL_ROW_42_281
*403 TAP_TAPCELL_ROW_42_282
*404 TAP_TAPCELL_ROW_42_283
*405 TAP_TAPCELL_ROW_42_284
*406 TAP_TAPCELL_ROW_42_285
*407 TAP_TAPCELL_ROW_43_286
*408 TAP_TAPCELL_ROW_43_287
*409 TAP_TAPCELL_ROW_43_288
*410 TAP_TAPCELL_ROW_43_289
*411 TAP_TAPCELL_ROW_43_290
*412 TAP_TAPCELL_ROW_43_291
*413 TAP_TAPCELL_ROW_44_292
*414 TAP_TAPCELL_ROW_44_293
*415 TAP_TAPCELL_ROW_44_294
*416 TAP_TAPCELL_ROW_44_295
*417 TAP_TAPCELL_ROW_44_296
*418 TAP_TAPCELL_ROW_44_297
*419 TAP_TAPCELL_ROW_44_298
*420 TAP_TAPCELL_ROW_45_299
*421 TAP_TAPCELL_ROW_45_300
*422 TAP_TAPCELL_ROW_45_301
*423 TAP_TAPCELL_ROW_45_302
*424 TAP_TAPCELL_ROW_45_303
*425 TAP_TAPCELL_ROW_45_304
*426 TAP_TAPCELL_ROW_46_305
*427 TAP_TAPCELL_ROW_46_306
*428 TAP_TAPCELL_ROW_46_307
*429 TAP_TAPCELL_ROW_46_308
*430 TAP_TAPCELL_ROW_46_309
*431 TAP_TAPCELL_ROW_46_310
*432 TAP_TAPCELL_ROW_46_311
*433 TAP_TAPCELL_ROW_47_312
*434 TAP_TAPCELL_ROW_47_313
*435 TAP_TAPCELL_ROW_47_314
*436 TAP_TAPCELL_ROW_47_315
*437 TAP_TAPCELL_ROW_47_316
*438 TAP_TAPCELL_ROW_47_317
*439 TAP_TAPCELL_ROW_48_318
*440 TAP_TAPCELL_ROW_48_319
*441 TAP_TAPCELL_ROW_48_320
*442 TAP_TAPCELL_ROW_48_321
*443 TAP_TAPCELL_ROW_48_322
*444 TAP_TAPCELL_ROW_48_323
*445 TAP_TAPCELL_ROW_48_324
*446 TAP_TAPCELL_ROW_49_325
*447 TAP_TAPCELL_ROW_49_326
*448 TAP_TAPCELL_ROW_49_327
*449 TAP_TAPCELL_ROW_49_328
*450 TAP_TAPCELL_ROW_49_329
*451 TAP_TAPCELL_ROW_49_330
*452 TAP_TAPCELL_ROW_50_331
*453 TAP_TAPCELL_ROW_50_332
*454 TAP_TAPCELL_ROW_50_333
*455 TAP_TAPCELL_ROW_50_334
*456 TAP_TAPCELL_ROW_50_335
*457 TAP_TAPCELL_ROW_50_336
*458 TAP_TAPCELL_ROW_50_337
*459 TAP_TAPCELL_ROW_51_338
*460 TAP_TAPCELL_ROW_51_339
*461 TAP_TAPCELL_ROW_51_340
*462 TAP_TAPCELL_ROW_51_341
*463 TAP_TAPCELL_ROW_51_342
*464 TAP_TAPCELL_ROW_51_343
*465 TAP_TAPCELL_ROW_52_344
*466 TAP_TAPCELL_ROW_52_345
*467 TAP_TAPCELL_ROW_52_346
*468 TAP_TAPCELL_ROW_52_347
*469 TAP_TAPCELL_ROW_52_348
*470 TAP_TAPCELL_ROW_52_349
*471 TAP_TAPCELL_ROW_52_350
*472 TAP_TAPCELL_ROW_53_351
*473 TAP_TAPCELL_ROW_53_352
*474 TAP_TAPCELL_ROW_53_353
*475 TAP_TAPCELL_ROW_53_354
*476 TAP_TAPCELL_ROW_53_355
*477 TAP_TAPCELL_ROW_53_356
*478 TAP_TAPCELL_ROW_54_357
*479 TAP_TAPCELL_ROW_54_358
*480 TAP_TAPCELL_ROW_54_359
*481 TAP_TAPCELL_ROW_54_360
*482 TAP_TAPCELL_ROW_54_361
*483 TAP_TAPCELL_ROW_54_362
*484 TAP_TAPCELL_ROW_54_363
*485 TAP_TAPCELL_ROW_55_364
*486 TAP_TAPCELL_ROW_55_365
*487 TAP_TAPCELL_ROW_55_366
*488 TAP_TAPCELL_ROW_55_367
*489 TAP_TAPCELL_ROW_55_368
*490 TAP_TAPCELL_ROW_55_369
*491 TAP_TAPCELL_ROW_56_370
*492 TAP_TAPCELL_ROW_56_371
*493 TAP_TAPCELL_ROW_56_372
*494 TAP_TAPCELL_ROW_56_373
*495 TAP_TAPCELL_ROW_56_374
*496 TAP_TAPCELL_ROW_56_375
*497 TAP_TAPCELL_ROW_56_376
*498 TAP_TAPCELL_ROW_57_377
*499 TAP_TAPCELL_ROW_57_378
*500 TAP_TAPCELL_ROW_57_379
*501 TAP_TAPCELL_ROW_57_380
*502 TAP_TAPCELL_ROW_57_381
*503 TAP_TAPCELL_ROW_57_382
*504 TAP_TAPCELL_ROW_58_383
*505 TAP_TAPCELL_ROW_58_384
*506 TAP_TAPCELL_ROW_58_385
*507 TAP_TAPCELL_ROW_58_386
*508 TAP_TAPCELL_ROW_58_387
*509 TAP_TAPCELL_ROW_58_388
*510 TAP_TAPCELL_ROW_58_389
*511 TAP_TAPCELL_ROW_59_390
*512 TAP_TAPCELL_ROW_59_391
*513 TAP_TAPCELL_ROW_59_392
*514 TAP_TAPCELL_ROW_59_393
*515 TAP_TAPCELL_ROW_59_394
*516 TAP_TAPCELL_ROW_59_395
*517 TAP_TAPCELL_ROW_60_396
*518 TAP_TAPCELL_ROW_60_397
*519 TAP_TAPCELL_ROW_60_398
*520 TAP_TAPCELL_ROW_60_399
*521 TAP_TAPCELL_ROW_60_400
*522 TAP_TAPCELL_ROW_60_401
*523 TAP_TAPCELL_ROW_60_402
*524 TAP_TAPCELL_ROW_61_403
*525 TAP_TAPCELL_ROW_61_404
*526 TAP_TAPCELL_ROW_61_405
*527 TAP_TAPCELL_ROW_61_406
*528 TAP_TAPCELL_ROW_61_407
*529 TAP_TAPCELL_ROW_61_408
*530 TAP_TAPCELL_ROW_62_409
*531 TAP_TAPCELL_ROW_62_410
*532 TAP_TAPCELL_ROW_62_411
*533 TAP_TAPCELL_ROW_62_412
*534 TAP_TAPCELL_ROW_62_413
*535 TAP_TAPCELL_ROW_62_414
*536 TAP_TAPCELL_ROW_62_415
*537 TAP_TAPCELL_ROW_63_416
*538 TAP_TAPCELL_ROW_63_417
*539 TAP_TAPCELL_ROW_63_418
*540 TAP_TAPCELL_ROW_63_419
*541 TAP_TAPCELL_ROW_63_420
*542 TAP_TAPCELL_ROW_63_421
*543 TAP_TAPCELL_ROW_64_422
*544 TAP_TAPCELL_ROW_64_423
*545 TAP_TAPCELL_ROW_64_424
*546 TAP_TAPCELL_ROW_64_425
*547 TAP_TAPCELL_ROW_64_426
*548 TAP_TAPCELL_ROW_64_427
*549 TAP_TAPCELL_ROW_64_428
*550 TAP_TAPCELL_ROW_64_429
*551 TAP_TAPCELL_ROW_64_430
*552 TAP_TAPCELL_ROW_64_431
*553 TAP_TAPCELL_ROW_64_432
*554 TAP_TAPCELL_ROW_64_433
*555 TAP_TAPCELL_ROW_64_434
*556 input1
*557 input2
*558 input3
*559 input4
*560 input5
*561 input6
*562 input7
*563 input8
*564 input9
*565 input10
*566 input11
*567 input12
*568 input13
*569 input14
*570 input15
*571 input16
*572 output17
*573 output18
*574 output19
*575 output20
*576 output21
*577 output22
*578 output23
*579 output24
*580 FILLER_0_0
*581 FILLER_0_8
*582 FILLER_0_16
*583 FILLER_0_24
*584 FILLER_0_28
*585 FILLER_0_31
*586 FILLER_0_39
*587 FILLER_0_47
*588 FILLER_0_55
*589 FILLER_0_59
*590 FILLER_0_61
*591 FILLER_0_69
*592 FILLER_0_77
*593 FILLER_0_85
*594 FILLER_0_89
*595 FILLER_0_91
*596 FILLER_0_99
*597 FILLER_0_107
*598 FILLER_0_115
*599 FILLER_0_119
*600 FILLER_0_121
*601 FILLER_0_129
*602 FILLER_0_137
*603 FILLER_0_145
*604 FILLER_0_149
*605 FILLER_0_151
*606 FILLER_0_159
*607 FILLER_0_167
*608 FILLER_0_175
*609 FILLER_0_179
*610 FILLER_0_181
*611 FILLER_0_189
*612 FILLER_0_197
*613 FILLER_0_205
*614 FILLER_0_209
*615 FILLER_0_211
*616 FILLER_0_219
*617 FILLER_0_227
*618 FILLER_0_235
*619 FILLER_0_239
*620 FILLER_0_241
*621 FILLER_0_249
*622 FILLER_0_257
*623 FILLER_0_265
*624 FILLER_0_269
*625 FILLER_0_271
*626 FILLER_0_279
*627 FILLER_0_287
*628 FILLER_0_295
*629 FILLER_0_299
*630 FILLER_0_301
*631 FILLER_0_309
*632 FILLER_0_317
*633 FILLER_0_325
*634 FILLER_0_329
*635 FILLER_0_331
*636 FILLER_0_339
*637 FILLER_0_347
*638 FILLER_0_355
*639 FILLER_0_359
*640 FILLER_0_361
*641 FILLER_0_369
*642 FILLER_0_377
*643 FILLER_0_385
*644 FILLER_0_389
*645 FILLER_1_0
*646 FILLER_1_8
*647 FILLER_1_16
*648 FILLER_1_24
*649 FILLER_1_32
*650 FILLER_1_40
*651 FILLER_1_48
*652 FILLER_1_56
*653 FILLER_1_61
*654 FILLER_1_69
*655 FILLER_1_77
*656 FILLER_1_85
*657 FILLER_1_93
*658 FILLER_1_101
*659 FILLER_1_109
*660 FILLER_1_117
*661 FILLER_1_119
*662 FILLER_1_121
*663 FILLER_1_129
*664 FILLER_1_137
*665 FILLER_1_145
*666 FILLER_1_153
*667 FILLER_1_161
*668 FILLER_1_169
*669 FILLER_1_177
*670 FILLER_1_179
*671 FILLER_1_181
*672 FILLER_1_189
*673 FILLER_1_197
*674 FILLER_1_205
*675 FILLER_1_213
*676 FILLER_1_221
*677 FILLER_1_229
*678 FILLER_1_237
*679 FILLER_1_239
*680 FILLER_1_241
*681 FILLER_1_249
*682 FILLER_1_257
*683 FILLER_1_265
*684 FILLER_1_273
*685 FILLER_1_281
*686 FILLER_1_289
*687 FILLER_1_297
*688 FILLER_1_299
*689 FILLER_1_301
*690 FILLER_1_309
*691 FILLER_1_317
*692 FILLER_1_325
*693 FILLER_1_333
*694 FILLER_1_341
*695 FILLER_1_349
*696 FILLER_1_357
*697 FILLER_1_359
*698 FILLER_1_361
*699 FILLER_1_369
*700 FILLER_1_377
*701 FILLER_1_385
*702 FILLER_1_389
*703 FILLER_2_0
*704 FILLER_2_8
*705 FILLER_2_16
*706 FILLER_2_24
*707 FILLER_2_28
*708 FILLER_2_31
*709 FILLER_2_39
*710 FILLER_2_47
*711 FILLER_2_55
*712 FILLER_2_63
*713 FILLER_2_71
*714 FILLER_2_79
*715 FILLER_2_87
*716 FILLER_2_89
*717 FILLER_2_91
*718 FILLER_2_99
*719 FILLER_2_107
*720 FILLER_2_115
*721 FILLER_2_123
*722 FILLER_2_131
*723 FILLER_2_139
*724 FILLER_2_147
*725 FILLER_2_149
*726 FILLER_2_151
*727 FILLER_2_159
*728 FILLER_2_167
*729 FILLER_2_175
*730 FILLER_2_183
*731 FILLER_2_191
*732 FILLER_2_199
*733 FILLER_2_207
*734 FILLER_2_209
*735 FILLER_2_211
*736 FILLER_2_219
*737 FILLER_2_227
*738 FILLER_2_235
*739 FILLER_2_243
*740 FILLER_2_251
*741 FILLER_2_259
*742 FILLER_2_267
*743 FILLER_2_269
*744 FILLER_2_271
*745 FILLER_2_279
*746 FILLER_2_287
*747 FILLER_2_295
*748 FILLER_2_303
*749 FILLER_2_311
*750 FILLER_2_319
*751 FILLER_2_327
*752 FILLER_2_329
*753 FILLER_2_331
*754 FILLER_2_339
*755 FILLER_2_347
*756 FILLER_2_355
*757 FILLER_2_363
*758 FILLER_2_371
*759 FILLER_2_379
*760 FILLER_2_387
*761 FILLER_2_389
*762 FILLER_3_0
*763 FILLER_3_8
*764 FILLER_3_16
*765 FILLER_3_24
*766 FILLER_3_32
*767 FILLER_3_40
*768 FILLER_3_48
*769 FILLER_3_56
*770 FILLER_3_61
*771 FILLER_3_69
*772 FILLER_3_77
*773 FILLER_3_85
*774 FILLER_3_93
*775 FILLER_3_101
*776 FILLER_3_109
*777 FILLER_3_117
*778 FILLER_3_119
*779 FILLER_3_121
*780 FILLER_3_129
*781 FILLER_3_137
*782 FILLER_3_145
*783 FILLER_3_153
*784 FILLER_3_161
*785 FILLER_3_169
*786 FILLER_3_177
*787 FILLER_3_179
*788 FILLER_3_181
*789 FILLER_3_189
*790 FILLER_3_197
*791 FILLER_3_205
*792 FILLER_3_213
*793 FILLER_3_221
*794 FILLER_3_229
*795 FILLER_3_237
*796 FILLER_3_239
*797 FILLER_3_241
*798 FILLER_3_249
*799 FILLER_3_257
*800 FILLER_3_265
*801 FILLER_3_273
*802 FILLER_3_281
*803 FILLER_3_289
*804 FILLER_3_297
*805 FILLER_3_299
*806 FILLER_3_301
*807 FILLER_3_309
*808 FILLER_3_317
*809 FILLER_3_325
*810 FILLER_3_333
*811 FILLER_3_341
*812 FILLER_3_349
*813 FILLER_3_357
*814 FILLER_3_359
*815 FILLER_3_361
*816 FILLER_3_369
*817 FILLER_3_377
*818 FILLER_3_385
*819 FILLER_3_389
*820 FILLER_4_0
*821 FILLER_4_8
*822 FILLER_4_16
*823 FILLER_4_24
*824 FILLER_4_28
*825 FILLER_4_31
*826 FILLER_4_39
*827 FILLER_4_47
*828 FILLER_4_55
*829 FILLER_4_63
*830 FILLER_4_71
*831 FILLER_4_79
*832 FILLER_4_87
*833 FILLER_4_89
*834 FILLER_4_91
*835 FILLER_4_99
*836 FILLER_4_107
*837 FILLER_4_115
*838 FILLER_4_123
*839 FILLER_4_131
*840 FILLER_4_139
*841 FILLER_4_147
*842 FILLER_4_149
*843 FILLER_4_151
*844 FILLER_4_159
*845 FILLER_4_167
*846 FILLER_4_175
*847 FILLER_4_183
*848 FILLER_4_191
*849 FILLER_4_199
*850 FILLER_4_207
*851 FILLER_4_209
*852 FILLER_4_211
*853 FILLER_4_219
*854 FILLER_4_227
*855 FILLER_4_235
*856 FILLER_4_243
*857 FILLER_4_251
*858 FILLER_4_259
*859 FILLER_4_267
*860 FILLER_4_269
*861 FILLER_4_271
*862 FILLER_4_279
*863 FILLER_4_287
*864 FILLER_4_295
*865 FILLER_4_303
*866 FILLER_4_311
*867 FILLER_4_319
*868 FILLER_4_327
*869 FILLER_4_329
*870 FILLER_4_331
*871 FILLER_4_339
*872 FILLER_4_347
*873 FILLER_4_355
*874 FILLER_4_363
*875 FILLER_4_371
*876 FILLER_4_379
*877 FILLER_4_387
*878 FILLER_4_389
*879 FILLER_5_0
*880 FILLER_5_8
*881 FILLER_5_16
*882 FILLER_5_24
*883 FILLER_5_32
*884 FILLER_5_40
*885 FILLER_5_48
*886 FILLER_5_56
*887 FILLER_5_61
*888 FILLER_5_69
*889 FILLER_5_77
*890 FILLER_5_85
*891 FILLER_5_93
*892 FILLER_5_101
*893 FILLER_5_109
*894 FILLER_5_117
*895 FILLER_5_119
*896 FILLER_5_121
*897 FILLER_5_129
*898 FILLER_5_137
*899 FILLER_5_145
*900 FILLER_5_153
*901 FILLER_5_161
*902 FILLER_5_169
*903 FILLER_5_177
*904 FILLER_5_179
*905 FILLER_5_181
*906 FILLER_5_189
*907 FILLER_5_197
*908 FILLER_5_205
*909 FILLER_5_213
*910 FILLER_5_221
*911 FILLER_5_229
*912 FILLER_5_237
*913 FILLER_5_239
*914 FILLER_5_241
*915 FILLER_5_249
*916 FILLER_5_257
*917 FILLER_5_265
*918 FILLER_5_273
*919 FILLER_5_281
*920 FILLER_5_289
*921 FILLER_5_297
*922 FILLER_5_299
*923 FILLER_5_301
*924 FILLER_5_309
*925 FILLER_5_317
*926 FILLER_5_325
*927 FILLER_5_333
*928 FILLER_5_341
*929 FILLER_5_349
*930 FILLER_5_357
*931 FILLER_5_359
*932 FILLER_5_361
*933 FILLER_5_369
*934 FILLER_5_377
*935 FILLER_5_385
*936 FILLER_5_389
*937 FILLER_6_0
*938 FILLER_6_8
*939 FILLER_6_16
*940 FILLER_6_24
*941 FILLER_6_28
*942 FILLER_6_31
*943 FILLER_6_39
*944 FILLER_6_47
*945 FILLER_6_55
*946 FILLER_6_63
*947 FILLER_6_71
*948 FILLER_6_79
*949 FILLER_6_87
*950 FILLER_6_89
*951 FILLER_6_91
*952 FILLER_6_99
*953 FILLER_6_107
*954 FILLER_6_115
*955 FILLER_6_123
*956 FILLER_6_131
*957 FILLER_6_139
*958 FILLER_6_147
*959 FILLER_6_149
*960 FILLER_6_151
*961 FILLER_6_159
*962 FILLER_6_167
*963 FILLER_6_175
*964 FILLER_6_183
*965 FILLER_6_191
*966 FILLER_6_199
*967 FILLER_6_207
*968 FILLER_6_209
*969 FILLER_6_211
*970 FILLER_6_219
*971 FILLER_6_227
*972 FILLER_6_235
*973 FILLER_6_243
*974 FILLER_6_251
*975 FILLER_6_259
*976 FILLER_6_267
*977 FILLER_6_269
*978 FILLER_6_271
*979 FILLER_6_279
*980 FILLER_6_287
*981 FILLER_6_295
*982 FILLER_6_303
*983 FILLER_6_311
*984 FILLER_6_319
*985 FILLER_6_327
*986 FILLER_6_329
*987 FILLER_6_331
*988 FILLER_6_339
*989 FILLER_6_347
*990 FILLER_6_355
*991 FILLER_6_363
*992 FILLER_6_371
*993 FILLER_6_379
*994 FILLER_6_387
*995 FILLER_6_389
*996 FILLER_7_0
*997 FILLER_7_8
*998 FILLER_7_16
*999 FILLER_7_24
*1000 FILLER_7_32
*1001 FILLER_7_40
*1002 FILLER_7_48
*1003 FILLER_7_56
*1004 FILLER_7_61
*1005 FILLER_7_69
*1006 FILLER_7_77
*1007 FILLER_7_85
*1008 FILLER_7_93
*1009 FILLER_7_101
*1010 FILLER_7_109
*1011 FILLER_7_117
*1012 FILLER_7_119
*1013 FILLER_7_121
*1014 FILLER_7_129
*1015 FILLER_7_137
*1016 FILLER_7_145
*1017 FILLER_7_153
*1018 FILLER_7_161
*1019 FILLER_7_169
*1020 FILLER_7_177
*1021 FILLER_7_179
*1022 FILLER_7_181
*1023 FILLER_7_189
*1024 FILLER_7_197
*1025 FILLER_7_205
*1026 FILLER_7_213
*1027 FILLER_7_221
*1028 FILLER_7_229
*1029 FILLER_7_237
*1030 FILLER_7_239
*1031 FILLER_7_241
*1032 FILLER_7_249
*1033 FILLER_7_257
*1034 FILLER_7_265
*1035 FILLER_7_273
*1036 FILLER_7_281
*1037 FILLER_7_289
*1038 FILLER_7_297
*1039 FILLER_7_299
*1040 FILLER_7_301
*1041 FILLER_7_309
*1042 FILLER_7_317
*1043 FILLER_7_325
*1044 FILLER_7_333
*1045 FILLER_7_341
*1046 FILLER_7_349
*1047 FILLER_7_357
*1048 FILLER_7_359
*1049 FILLER_7_361
*1050 FILLER_7_369
*1051 FILLER_7_377
*1052 FILLER_7_385
*1053 FILLER_7_389
*1054 FILLER_8_0
*1055 FILLER_8_8
*1056 FILLER_8_16
*1057 FILLER_8_24
*1058 FILLER_8_28
*1059 FILLER_8_31
*1060 FILLER_8_39
*1061 FILLER_8_47
*1062 FILLER_8_55
*1063 FILLER_8_63
*1064 FILLER_8_71
*1065 FILLER_8_79
*1066 FILLER_8_87
*1067 FILLER_8_89
*1068 FILLER_8_91
*1069 FILLER_8_99
*1070 FILLER_8_107
*1071 FILLER_8_115
*1072 FILLER_8_123
*1073 FILLER_8_131
*1074 FILLER_8_139
*1075 FILLER_8_147
*1076 FILLER_8_149
*1077 FILLER_8_151
*1078 FILLER_8_159
*1079 FILLER_8_167
*1080 FILLER_8_175
*1081 FILLER_8_183
*1082 FILLER_8_191
*1083 FILLER_8_199
*1084 FILLER_8_207
*1085 FILLER_8_209
*1086 FILLER_8_211
*1087 FILLER_8_219
*1088 FILLER_8_227
*1089 FILLER_8_235
*1090 FILLER_8_243
*1091 FILLER_8_251
*1092 FILLER_8_259
*1093 FILLER_8_267
*1094 FILLER_8_269
*1095 FILLER_8_271
*1096 FILLER_8_279
*1097 FILLER_8_287
*1098 FILLER_8_295
*1099 FILLER_8_303
*1100 FILLER_8_311
*1101 FILLER_8_319
*1102 FILLER_8_327
*1103 FILLER_8_329
*1104 FILLER_8_331
*1105 FILLER_8_339
*1106 FILLER_8_347
*1107 FILLER_8_355
*1108 FILLER_8_363
*1109 FILLER_8_371
*1110 FILLER_8_379
*1111 FILLER_8_387
*1112 FILLER_8_389
*1113 FILLER_9_0
*1114 FILLER_9_8
*1115 FILLER_9_16
*1116 FILLER_9_24
*1117 FILLER_9_32
*1118 FILLER_9_40
*1119 FILLER_9_48
*1120 FILLER_9_56
*1121 FILLER_9_61
*1122 FILLER_9_69
*1123 FILLER_9_77
*1124 FILLER_9_85
*1125 FILLER_9_93
*1126 FILLER_9_101
*1127 FILLER_9_109
*1128 FILLER_9_117
*1129 FILLER_9_119
*1130 FILLER_9_121
*1131 FILLER_9_129
*1132 FILLER_9_137
*1133 FILLER_9_145
*1134 FILLER_9_153
*1135 FILLER_9_161
*1136 FILLER_9_169
*1137 FILLER_9_177
*1138 FILLER_9_179
*1139 FILLER_9_181
*1140 FILLER_9_189
*1141 FILLER_9_197
*1142 FILLER_9_205
*1143 FILLER_9_213
*1144 FILLER_9_221
*1145 FILLER_9_229
*1146 FILLER_9_237
*1147 FILLER_9_239
*1148 FILLER_9_241
*1149 FILLER_9_249
*1150 FILLER_9_257
*1151 FILLER_9_265
*1152 FILLER_9_273
*1153 FILLER_9_281
*1154 FILLER_9_289
*1155 FILLER_9_297
*1156 FILLER_9_299
*1157 FILLER_9_301
*1158 FILLER_9_309
*1159 FILLER_9_317
*1160 FILLER_9_325
*1161 FILLER_9_333
*1162 FILLER_9_341
*1163 FILLER_9_349
*1164 FILLER_9_357
*1165 FILLER_9_359
*1166 FILLER_9_361
*1167 FILLER_9_369
*1168 FILLER_9_377
*1169 FILLER_9_385
*1170 FILLER_9_389
*1171 FILLER_10_0
*1172 FILLER_10_8
*1173 FILLER_10_16
*1174 FILLER_10_24
*1175 FILLER_10_28
*1176 FILLER_10_31
*1177 FILLER_10_39
*1178 FILLER_10_47
*1179 FILLER_10_55
*1180 FILLER_10_63
*1181 FILLER_10_71
*1182 FILLER_10_79
*1183 FILLER_10_87
*1184 FILLER_10_89
*1185 FILLER_10_91
*1186 FILLER_10_99
*1187 FILLER_10_107
*1188 FILLER_10_115
*1189 FILLER_10_123
*1190 FILLER_10_131
*1191 FILLER_10_139
*1192 FILLER_10_147
*1193 FILLER_10_149
*1194 FILLER_10_151
*1195 FILLER_10_159
*1196 FILLER_10_167
*1197 FILLER_10_175
*1198 FILLER_10_183
*1199 FILLER_10_191
*1200 FILLER_10_199
*1201 FILLER_10_207
*1202 FILLER_10_209
*1203 FILLER_10_211
*1204 FILLER_10_219
*1205 FILLER_10_227
*1206 FILLER_10_235
*1207 FILLER_10_243
*1208 FILLER_10_251
*1209 FILLER_10_259
*1210 FILLER_10_267
*1211 FILLER_10_269
*1212 FILLER_10_271
*1213 FILLER_10_279
*1214 FILLER_10_287
*1215 FILLER_10_295
*1216 FILLER_10_303
*1217 FILLER_10_311
*1218 FILLER_10_319
*1219 FILLER_10_327
*1220 FILLER_10_329
*1221 FILLER_10_331
*1222 FILLER_10_339
*1223 FILLER_10_347
*1224 FILLER_10_355
*1225 FILLER_10_363
*1226 FILLER_10_371
*1227 FILLER_10_379
*1228 FILLER_10_387
*1229 FILLER_10_389
*1230 FILLER_11_0
*1231 FILLER_11_8
*1232 FILLER_11_16
*1233 FILLER_11_24
*1234 FILLER_11_32
*1235 FILLER_11_40
*1236 FILLER_11_48
*1237 FILLER_11_56
*1238 FILLER_11_61
*1239 FILLER_11_69
*1240 FILLER_11_77
*1241 FILLER_11_85
*1242 FILLER_11_93
*1243 FILLER_11_101
*1244 FILLER_11_109
*1245 FILLER_11_117
*1246 FILLER_11_119
*1247 FILLER_11_121
*1248 FILLER_11_129
*1249 FILLER_11_137
*1250 FILLER_11_145
*1251 FILLER_11_153
*1252 FILLER_11_161
*1253 FILLER_11_169
*1254 FILLER_11_177
*1255 FILLER_11_179
*1256 FILLER_11_181
*1257 FILLER_11_189
*1258 FILLER_11_197
*1259 FILLER_11_205
*1260 FILLER_11_213
*1261 FILLER_11_221
*1262 FILLER_11_229
*1263 FILLER_11_237
*1264 FILLER_11_239
*1265 FILLER_11_241
*1266 FILLER_11_249
*1267 FILLER_11_257
*1268 FILLER_11_265
*1269 FILLER_11_273
*1270 FILLER_11_281
*1271 FILLER_11_289
*1272 FILLER_11_297
*1273 FILLER_11_299
*1274 FILLER_11_301
*1275 FILLER_11_309
*1276 FILLER_11_317
*1277 FILLER_11_325
*1278 FILLER_11_333
*1279 FILLER_11_341
*1280 FILLER_11_349
*1281 FILLER_11_357
*1282 FILLER_11_359
*1283 FILLER_11_361
*1284 FILLER_11_369
*1285 FILLER_11_377
*1286 FILLER_11_385
*1287 FILLER_11_389
*1288 FILLER_12_0
*1289 FILLER_12_8
*1290 FILLER_12_16
*1291 FILLER_12_24
*1292 FILLER_12_28
*1293 FILLER_12_31
*1294 FILLER_12_39
*1295 FILLER_12_47
*1296 FILLER_12_55
*1297 FILLER_12_63
*1298 FILLER_12_71
*1299 FILLER_12_79
*1300 FILLER_12_87
*1301 FILLER_12_89
*1302 FILLER_12_91
*1303 FILLER_12_99
*1304 FILLER_12_107
*1305 FILLER_12_115
*1306 FILLER_12_123
*1307 FILLER_12_131
*1308 FILLER_12_139
*1309 FILLER_12_147
*1310 FILLER_12_149
*1311 FILLER_12_151
*1312 FILLER_12_159
*1313 FILLER_12_167
*1314 FILLER_12_175
*1315 FILLER_12_183
*1316 FILLER_12_191
*1317 FILLER_12_199
*1318 FILLER_12_207
*1319 FILLER_12_209
*1320 FILLER_12_211
*1321 FILLER_12_219
*1322 FILLER_12_227
*1323 FILLER_12_235
*1324 FILLER_12_243
*1325 FILLER_12_251
*1326 FILLER_12_259
*1327 FILLER_12_267
*1328 FILLER_12_269
*1329 FILLER_12_271
*1330 FILLER_12_279
*1331 FILLER_12_287
*1332 FILLER_12_295
*1333 FILLER_12_303
*1334 FILLER_12_311
*1335 FILLER_12_319
*1336 FILLER_12_327
*1337 FILLER_12_329
*1338 FILLER_12_331
*1339 FILLER_12_339
*1340 FILLER_12_347
*1341 FILLER_12_355
*1342 FILLER_12_363
*1343 FILLER_12_371
*1344 FILLER_12_379
*1345 FILLER_12_387
*1346 FILLER_12_389
*1347 FILLER_13_0
*1348 FILLER_13_8
*1349 FILLER_13_16
*1350 FILLER_13_24
*1351 FILLER_13_32
*1352 FILLER_13_40
*1353 FILLER_13_48
*1354 FILLER_13_56
*1355 FILLER_13_61
*1356 FILLER_13_69
*1357 FILLER_13_77
*1358 FILLER_13_85
*1359 FILLER_13_93
*1360 FILLER_13_101
*1361 FILLER_13_109
*1362 FILLER_13_117
*1363 FILLER_13_119
*1364 FILLER_13_121
*1365 FILLER_13_129
*1366 FILLER_13_137
*1367 FILLER_13_145
*1368 FILLER_13_153
*1369 FILLER_13_161
*1370 FILLER_13_169
*1371 FILLER_13_177
*1372 FILLER_13_179
*1373 FILLER_13_181
*1374 FILLER_13_189
*1375 FILLER_13_197
*1376 FILLER_13_205
*1377 FILLER_13_213
*1378 FILLER_13_221
*1379 FILLER_13_229
*1380 FILLER_13_237
*1381 FILLER_13_239
*1382 FILLER_13_241
*1383 FILLER_13_249
*1384 FILLER_13_257
*1385 FILLER_13_265
*1386 FILLER_13_273
*1387 FILLER_13_281
*1388 FILLER_13_289
*1389 FILLER_13_297
*1390 FILLER_13_299
*1391 FILLER_13_301
*1392 FILLER_13_309
*1393 FILLER_13_317
*1394 FILLER_13_325
*1395 FILLER_13_333
*1396 FILLER_13_341
*1397 FILLER_13_349
*1398 FILLER_13_357
*1399 FILLER_13_359
*1400 FILLER_13_361
*1401 FILLER_13_369
*1402 FILLER_13_377
*1403 FILLER_13_385
*1404 FILLER_13_389
*1405 FILLER_14_0
*1406 FILLER_14_8
*1407 FILLER_14_16
*1408 FILLER_14_24
*1409 FILLER_14_28
*1410 FILLER_14_31
*1411 FILLER_14_39
*1412 FILLER_14_47
*1413 FILLER_14_55
*1414 FILLER_14_63
*1415 FILLER_14_71
*1416 FILLER_14_79
*1417 FILLER_14_87
*1418 FILLER_14_89
*1419 FILLER_14_91
*1420 FILLER_14_99
*1421 FILLER_14_107
*1422 FILLER_14_115
*1423 FILLER_14_123
*1424 FILLER_14_131
*1425 FILLER_14_139
*1426 FILLER_14_147
*1427 FILLER_14_149
*1428 FILLER_14_151
*1429 FILLER_14_159
*1430 FILLER_14_167
*1431 FILLER_14_175
*1432 FILLER_14_183
*1433 FILLER_14_191
*1434 FILLER_14_199
*1435 FILLER_14_207
*1436 FILLER_14_209
*1437 FILLER_14_211
*1438 FILLER_14_219
*1439 FILLER_14_227
*1440 FILLER_14_235
*1441 FILLER_14_243
*1442 FILLER_14_251
*1443 FILLER_14_259
*1444 FILLER_14_267
*1445 FILLER_14_269
*1446 FILLER_14_271
*1447 FILLER_14_279
*1448 FILLER_14_287
*1449 FILLER_14_295
*1450 FILLER_14_303
*1451 FILLER_14_311
*1452 FILLER_14_319
*1453 FILLER_14_327
*1454 FILLER_14_329
*1455 FILLER_14_331