*SPEF "ieee 1481-1999"
*DESIGN "upcounter16"
*DATE "01:57:59 Wednesday April 22, 2026"
*VENDOR "The OpenROAD Project"
*PROGRAM "OpenROAD"
*VERSION "26Q2-209-g0d9d73ffba"
*DESIGN_FLOW "NAME_SCOPE LOCAL" "PIN_CAP NONE"
*DIVIDER /
*DELIMITER :
*BUS_DELIMITER []
*T_UNIT 1 NS
*C_UNIT 1 PF
*R_UNIT 1 OHM
*L_UNIT 1 HENRY

*NAME_MAP
*1 _00_
*2 _01_
*3 _02_
*4 _03_
*5 _04_
*6 _05_
*7 _06_
*8 _07_
*9 _08_
*10 _09_
*11 _10_
*12 _11_
*13 _12_
*14 _13_
*15 _14_
*16 _15_
*17 _16_
*18 _17_
*19 _18_
*20 _19_
*21 _20_
*22 _21_
*23 _22_
*24 _23_
*25 _24_
*26 _25_
*27 _26_
*28 _27_
*29 _28_
*30 _29_
*31 _30_
*32 _31_
*33 _32_
*34 _33_
*35 _34_
*36 _35_
*37 _36_
*38 _37_
*39 _38_
*40 _39_
*41 _40_
*42 _41_
*43 _42_
*44 _43_
*45 clk
*46 net3
*47 net4
*48 net5
*49 net6
*50 net7
*51 net8
*52 net9
*53 net10
*54 net11
*55 net12
*56 net13
*57 net14
*58 net15
*59 net16
*60 net17
*61 net18
*62 net1
*63 net2
*66 en
*67 rst_n
*68 count[0]
*69 count[10]
*70 count[11]
*71 count[12]
*72 count[13]
*73 count[14]
*74 count[15]
*75 count[1]
*76 count[2]
*77 count[3]
*78 count[4]
*79 count[5]
*80 count[6]
*81 count[7]
*82 count[8]
*83 count[9]
*84 clknet_0_clk
*85 clknet_1_0__leaf_clk
*86 clknet_1_1__leaf_clk
*87 _44_
*88 _45_
*89 _46_
*90 _47_
*91 _48_
*92 _49_
*93 _50_
*94 _51_
*95 _52_
*96 _53_
*97 _54_
*98 _55_
*99 _56_
*100 _57_
*101 _58_
*102 _59_
*103 _60_
*104 _61_
*105 _62_
*106 _63_
*107 _64_
*108 _65_
*109 _66_
*110 _67_
*111 _68_
*112 _69_
*113 _70_
*114 _71_
*115 _72_
*116 _73_
*117 _74_
*118 _75_
*119 _76_
*120 _77_
*121 _78_
*122 _79_
*123 _80_
*124 _81_
*125 _82_
*126 _83_
*127 _84_
*128 _85_
*129 _86_
*130 count\[0\]\$_DFFE_PN0P_
*131 count\[10\]\$_DFFE_PN0P_
*132 count\[11\]\$_DFFE_PN0P_
*133 count\[12\]\$_DFFE_PN0P_
*134 count\[13\]\$_DFFE_PN0P_
*135 count\[14\]\$_DFFE_PN0P_
*136 count\[15\]\$_DFFE_PN0P_
*137 count\[1\]\$_DFFE_PN0P_
*138 count\[2\]\$_DFFE_PN0P_
*139 count\[3\]\$_DFFE_PN0P_
*140 count\[4\]\$_DFFE_PN0P_
*141 count\[5\]\$_DFFE_PN0P_
*142 count\[6\]\$_DFFE_PN0P_
*143 count\[7\]\$_DFFE_PN0P_
*144 count\[8\]\$_DFFE_PN0P_
*145 count\[9\]\$_DFFE_PN0P_
*146 TAP_TAPCELL_ROW_0_0
*147 TAP_TAPCELL_ROW_0_1
*148 TAP_TAPCELL_ROW_0_2
*149 TAP_TAPCELL_ROW_0_3
*150 TAP_TAPCELL_ROW_0_4
*151 TAP_TAPCELL_ROW_0_5
*152 TAP_TAPCELL_ROW_0_6
*153 TAP_TAPCELL_ROW_0_7
*154 TAP_TAPCELL_ROW_0_8
*155 TAP_TAPCELL_ROW_0_9
*156 TAP_TAPCELL_ROW_0_10
*157 TAP_TAPCELL_ROW_0_11
*158 TAP_TAPCELL_ROW_0_12
*159 TAP_TAPCELL_ROW_1_13
*160 TAP_TAPCELL_ROW_1_14
*161 TAP_TAPCELL_ROW_1_15
*162 TAP_TAPCELL_ROW_1_16
*163 TAP_TAPCELL_ROW_1_17
*164 TAP_TAPCELL_ROW_1_18
*165 TAP_TAPCELL_ROW_2_19
*166 TAP_TAPCELL_ROW_2_20
*167 TAP_TAPCELL_ROW_2_21
*168 TAP_TAPCELL_ROW_2_22
*169 TAP_TAPCELL_ROW_2_23
*170 TAP_TAPCELL_ROW_2_24
*171 TAP_TAPCELL_ROW_2_25
*172 TAP_TAPCELL_ROW_3_26
*173 TAP_TAPCELL_ROW_3_27
*174 TAP_TAPCELL_ROW_3_28
*175 TAP_TAPCELL_ROW_3_29
*176 TAP_TAPCELL_ROW_3_30
*177 TAP_TAPCELL_ROW_3_31
*178 TAP_TAPCELL_ROW_4_32
*179 TAP_TAPCELL_ROW_4_33
*180 TAP_TAPCELL_ROW_4_34
*181 TAP_TAPCELL_ROW_4_35
*182 TAP_TAPCELL_ROW_4_36
*183 TAP_TAPCELL_ROW_4_37
*184 TAP_TAPCELL_ROW_4_38
*185 TAP_TAPCELL_ROW_5_39
*186 TAP_TAPCELL_ROW_5_40
*187 TAP_TAPCELL_ROW_5_41
*188 TAP_TAPCELL_ROW_5_42
*189 TAP_TAPCELL_ROW_5_43
*190 TAP_TAPCELL_ROW_5_44
*191 TAP_TAPCELL_ROW_6_45
*192 TAP_TAPCELL_ROW_6_46
*193 TAP_TAPCELL_ROW_6_47
*194 TAP_TAPCELL_ROW_6_48
*195 TAP_TAPCELL_ROW_6_49
*196 TAP_TAPCELL_ROW_6_50
*197 TAP_TAPCELL_ROW_6_51
*198 TAP_TAPCELL_ROW_7_52
*199 TAP_TAPCELL_ROW_7_53
*200 TAP_TAPCELL_ROW_7_54
*201 TAP_TAPCELL_ROW_7_55
*202 TAP_TAPCELL_ROW_7_56
*203 TAP_TAPCELL_ROW_7_57
*204 TAP_TAPCELL_ROW_8_58
*205 TAP_TAPCELL_ROW_8_59
*206 TAP_TAPCELL_ROW_8_60
*207 TAP_TAPCELL_ROW_8_61
*208 TAP_TAPCELL_ROW_8_62
*209 TAP_TAPCELL_ROW_8_63
*210 TAP_TAPCELL_ROW_8_64
*211 TAP_TAPCELL_ROW_9_65
*212 TAP_TAPCELL_ROW_9_66
*213 TAP_TAPCELL_ROW_9_67
*214 TAP_TAPCELL_ROW_9_68
*215 TAP_TAPCELL_ROW_9_69
*216 TAP_TAPCELL_ROW_9_70
*217 TAP_TAPCELL_ROW_10_71
*218 TAP_TAPCELL_ROW_10_72
*219 TAP_TAPCELL_ROW_10_73
*220 TAP_TAPCELL_ROW_10_74
*221 TAP_TAPCELL_ROW_10_75
*222 TAP_TAPCELL_ROW_10_76
*223 TAP_TAPCELL_ROW_10_77
*224 TAP_TAPCELL_ROW_11_78
*225 TAP_TAPCELL_ROW_11_79
*226 TAP_TAPCELL_ROW_11_80
*227 TAP_TAPCELL_ROW_11_81
*228 TAP_TAPCELL_ROW_11_82
*229 TAP_TAPCELL_ROW_11_83
*230 TAP_TAPCELL_ROW_12_84
*231 TAP_TAPCELL_ROW_12_85
*232 TAP_TAPCELL_ROW_12_86
*233 TAP_TAPCELL_ROW_12_87
*234 TAP_TAPCELL_ROW_12_88
*235 TAP_TAPCELL_ROW_12_89
*236 TAP_TAPCELL_ROW_12_90
*237 TAP_TAPCELL_ROW_13_91
*238 TAP_TAPCELL_ROW_13_92
*239 TAP_TAPCELL_ROW_13_93
*240 TAP_TAPCELL_ROW_13_94
*241 TAP_TAPCELL_ROW_13_95
*242 TAP_TAPCELL_ROW_13_96
*243 TAP_TAPCELL_ROW_14_97
*244 TAP_TAPCELL_ROW_14_98
*245 TAP_TAPCELL_ROW_14_99
*246 TAP_TAPCELL_ROW_14_100
*247 TAP_TAPCELL_ROW_14_101
*248 TAP_TAPCELL_ROW_14_102
*249 TAP_TAPCELL_ROW_14_103
*250 TAP_TAPCELL_ROW_15_104
*251 TAP_TAPCELL_ROW_15_105
*252 TAP_TAPCELL_ROW_15_106
*253 TAP_TAPCELL_ROW_15_107
*254 TAP_TAPCELL_ROW_15_108
*255 TAP_TAPCELL_ROW_15_109
*256 TAP_TAPCELL_ROW_16_110
*257 TAP_TAPCELL_ROW_16_111
*258 TAP_TAPCELL_ROW_16_112
*259 TAP_TAPCELL_ROW_16_113
*260 TAP_TAPCELL_ROW_16_114
*261 TAP_TAPCELL_ROW_16_115
*262 TAP_TAPCELL_ROW_16_116
*263 TAP_TAPCELL_ROW_17_117
*264 TAP_TAPCELL_ROW_17_118
*265 TAP_TAPCELL_ROW_17_119
*266 TAP_TAPCELL_ROW_17_120
*267 TAP_TAPCELL_ROW_17_121
*268 TAP_TAPCELL_ROW_17_122
*269 TAP_TAPCELL_ROW_18_123
*270 TAP_TAPCELL_ROW_18_124
*271 TAP_TAPCELL_ROW_18_125
*272 TAP_TAPCELL_ROW_18_126
*273 TAP_TAPCELL_ROW_18_127
*274 TAP_TAPCELL_ROW_18_128
*275 TAP_TAPCELL_ROW_18_129
*276 TAP_TAPCELL_ROW_19_130
*277 TAP_TAPCELL_ROW_19_131
*278 TAP_TAPCELL_ROW_19_132
*279 TAP_TAPCELL_ROW_19_133
*280 TAP_TAPCELL_ROW_19_134
*281 TAP_TAPCELL_ROW_19_135
*282 TAP_TAPCELL_ROW_20_136
*283 TAP_TAPCELL_ROW_20_137
*284 TAP_TAPCELL_ROW_20_138
*285 TAP_TAPCELL_ROW_20_139
*286 TAP_TAPCELL_ROW_20_140
*287 TAP_TAPCELL_ROW_20_141
*288 TAP_TAPCELL_ROW_20_142
*289 TAP_TAPCELL_ROW_21_143
*290 TAP_TAPCELL_ROW_21_144
*291 TAP_TAPCELL_ROW_21_145
*292 TAP_TAPCELL_ROW_21_146
*293 TAP_TAPCELL_ROW_21_147
*294 TAP_TAPCELL_ROW_21_148
*295 TAP_TAPCELL_ROW_22_149
*296 TAP_TAPCELL_ROW_22_150
*297 TAP_TAPCELL_ROW_22_151
*298 TAP_TAPCELL_ROW_22_152
*299 TAP_TAPCELL_ROW_22_153
*300 TAP_TAPCELL_ROW_22_154
*301 TAP_TAPCELL_ROW_22_155
*302 TAP_TAPCELL_ROW_23_156
*303 TAP_TAPCELL_ROW_23_157
*304 TAP_TAPCELL_ROW_23_158
*305 TAP_TAPCELL_ROW_23_159
*306 TAP_TAPCELL_ROW_23_160
*307 TAP_TAPCELL_ROW_23_161
*308 TAP_TAPCELL_ROW_24_162
*309 TAP_TAPCELL_ROW_24_163
*310 TAP_TAPCELL_ROW_24_164
*311 TAP_TAPCELL_ROW_24_165
*312 TAP_TAPCELL_ROW_24_166
*313 TAP_TAPCELL_ROW_24_167
*314 TAP_TAPCELL_ROW_24_168
*315 TAP_TAPCELL_ROW_25_169
*316 TAP_TAPCELL_ROW_25_170
*317 TAP_TAPCELL_ROW_25_171
*318 TAP_TAPCELL_ROW_25_172
*319 TAP_TAPCELL_ROW_25_173
*320 TAP_TAPCELL_ROW_25_174
*321 TAP_TAPCELL_ROW_26_175
*322 TAP_TAPCELL_ROW_26_176
*323 TAP_TAPCELL_ROW_26_177
*324 TAP_TAPCELL_ROW_26_178
*325 TAP_TAPCELL_ROW_26_179
*326 TAP_TAPCELL_ROW_26_180
*327 TAP_TAPCELL_ROW_26_181
*328 TAP_TAPCELL_ROW_27_182
*329 TAP_TAPCELL_ROW_27_183
*330 TAP_TAPCELL_ROW_27_184
*331 TAP_TAPCELL_ROW_27_185
*332 TAP_TAPCELL_ROW_27_186
*333 TAP_TAPCELL_ROW_27_187
*334 TAP_TAPCELL_ROW_28_188
*335 TAP_TAPCELL_ROW_28_189
*336 TAP_TAPCELL_ROW_28_190
*337 TAP_TAPCELL_ROW_28_191
*338 TAP_TAPCELL_ROW_28_192
*339 TAP_TAPCELL_ROW_28_193
*340 TAP_TAPCELL_ROW_28_194
*341 TAP_TAPCELL_ROW_29_195
*342 TAP_TAPCELL_ROW_29_196
*343 TAP_TAPCELL_ROW_29_197
*344 TAP_TAPCELL_ROW_29_198
*345 TAP_TAPCELL_ROW_29_199
*346 TAP_TAPCELL_ROW_29_200
*347 TAP_TAPCELL_ROW_30_201
*348 TAP_TAPCELL_ROW_30_202
*349 TAP_TAPCELL_ROW_30_203
*350 TAP_TAPCELL_ROW_30_204
*351 TAP_TAPCELL_ROW_30_205
*352 TAP_TAPCELL_ROW_30_206
*353 TAP_TAPCELL_ROW_30_207
*354 TAP_TAPCELL_ROW_31_208
*355 TAP_TAPCELL_ROW_31_209
*356 TAP_TAPCELL_ROW_31_210
*357 TAP_TAPCELL_ROW_31_211
*358 TAP_TAPCELL_ROW_31_212
*359 TAP_TAPCELL_ROW_31_213
*360 TAP_TAPCELL_ROW_32_214
*361 TAP_TAPCELL_ROW_32_215
*362 TAP_TAPCELL_ROW_32_216
*363 TAP_TAPCELL_ROW_32_217
*364 TAP_TAPCELL_ROW_32_218
*365 TAP_TAPCELL_ROW_32_219
*366 TAP_TAPCELL_ROW_32_220
*367 TAP_TAPCELL_ROW_33_221
*368 TAP_TAPCELL_ROW_33_222
*369 TAP_TAPCELL_ROW_33_223
*370 TAP_TAPCELL_ROW_33_224
*371 TAP_TAPCELL_ROW_33_225
*372 TAP_TAPCELL_ROW_33_226
*373 TAP_TAPCELL_ROW_34_227
*374 TAP_TAPCELL_ROW_34_228
*375 TAP_TAPCELL_ROW_34_229
*376 TAP_TAPCELL_ROW_34_230
*377 TAP_TAPCELL_ROW_34_231
*378 TAP_TAPCELL_ROW_34_232
*379 TAP_TAPCELL_ROW_34_233
*380 TAP_TAPCELL_ROW_35_234
*381 TAP_TAPCELL_ROW_35_235
*382 TAP_TAPCELL_ROW_35_236
*383 TAP_TAPCELL_ROW_35_237
*384 TAP_TAPCELL_ROW_35_238
*385 TAP_TAPCELL_ROW_35_239
*386 TAP_TAPCELL_ROW_36_240
*387 TAP_TAPCELL_ROW_36_241
*388 TAP_TAPCELL_ROW_36_242
*389 TAP_TAPCELL_ROW_36_243
*390 TAP_TAPCELL_ROW_36_244
*391 TAP_TAPCELL_ROW_36_245
*392 TAP_TAPCELL_ROW_36_246
*393 TAP_TAPCELL_ROW_37_247
*394 TAP_TAPCELL_ROW_37_248
*395 TAP_TAPCELL_ROW_37_249
*396 TAP_TAPCELL_ROW_37_250
*397 TAP_TAPCELL_ROW_37_251
*398 TAP_TAPCELL_ROW_37_252
*399 TAP_TAPCELL_ROW_38_253
*400 TAP_TAPCELL_ROW_38_254
*401 TAP_TAPCELL_ROW_38_255
*402 TAP_TAPCELL_ROW_38_256
*403 TAP_TAPCELL_ROW_38_257
*404 TAP_TAPCELL_ROW_38_258
*405 TAP_TAPCELL_ROW_38_259
*406 TAP_TAPCELL_ROW_39_260
*407 TAP_TAPCELL_ROW_39_261
*408 TAP_TAPCELL_ROW_39_262
*409 TAP_TAPCELL_ROW_39_263
*410 TAP_TAPCELL_ROW_39_264
*411 TAP_TAPCELL_ROW_39_265
*412 TAP_TAPCELL_ROW_40_266
*413 TAP_TAPCELL_ROW_40_267
*414 TAP_TAPCELL_ROW_40_268
*415 TAP_TAPCELL_ROW_40_269
*416 TAP_TAPCELL_ROW_40_270
*417 TAP_TAPCELL_ROW_40_271
*418 TAP_TAPCELL_ROW_40_272
*419 TAP_TAPCELL_ROW_41_273
*420 TAP_TAPCELL_ROW_41_274
*421 TAP_TAPCELL_ROW_41_275
*422 TAP_TAPCELL_ROW_41_276
*423 TAP_TAPCELL_ROW_41_277
*424 TAP_TAPCELL_ROW_41_278
*425 TAP_TAPCELL_ROW_42_279
*426 TAP_TAPCELL_ROW_42_280
*427 TAP_TAPCELL_ROW_42_281
*428 TAP_TAPCELL_ROW_42_282
*429 TAP_TAPCELL_ROW_42_283
*430 TAP_TAPCELL_ROW_42_284
*431 TAP_TAPCELL_ROW_42_285
*432 TAP_TAPCELL_ROW_43_286
*433 TAP_TAPCELL_ROW_43_287
*434 TAP_TAPCELL_ROW_43_288
*435 TAP_TAPCELL_ROW_43_289
*436 TAP_TAPCELL_ROW_43_290
*437 TAP_TAPCELL_ROW_43_291
*438 TAP_TAPCELL_ROW_44_292
*439 TAP_TAPCELL_ROW_44_293
*440 TAP_TAPCELL_ROW_44_294
*441 TAP_TAPCELL_ROW_44_295
*442 TAP_TAPCELL_ROW_44_296
*443 TAP_TAPCELL_ROW_44_297
*444 TAP_TAPCELL_ROW_44_298
*445 TAP_TAPCELL_ROW_45_299
*446 TAP_TAPCELL_ROW_45_300
*447 TAP_TAPCELL_ROW_45_301
*448 TAP_TAPCELL_ROW_45_302
*449 TAP_TAPCELL_ROW_45_303
*450 TAP_TAPCELL_ROW_45_304
*451 TAP_TAPCELL_ROW_46_305
*452 TAP_TAPCELL_ROW_46_306
*453 TAP_TAPCELL_ROW_46_307
*454 TAP_TAPCELL_ROW_46_308
*455 TAP_TAPCELL_ROW_46_309
*456 TAP_TAPCELL_ROW_46_310
*457 TAP_TAPCELL_ROW_46_311
*458 TAP_TAPCELL_ROW_47_312
*459 TAP_TAPCELL_ROW_47_313
*460 TAP_TAPCELL_ROW_47_314
*461 TAP_TAPCELL_ROW_47_315
*462 TAP_TAPCELL_ROW_47_316
*463 TAP_TAPCELL_ROW_47_317
*464 TAP_TAPCELL_ROW_48_318
*465 TAP_TAPCELL_ROW_48_319
*466 TAP_TAPCELL_ROW_48_320
*467 TAP_TAPCELL_ROW_48_321
*468 TAP_TAPCELL_ROW_48_322
*469 TAP_TAPCELL_ROW_48_323
*470 TAP_TAPCELL_ROW_48_324
*471 TAP_TAPCELL_ROW_49_325
*472 TAP_TAPCELL_ROW_49_326
*473 TAP_TAPCELL_ROW_49_327
*474 TAP_TAPCELL_ROW_49_328
*475 TAP_TAPCELL_ROW_49_329
*476 TAP_TAPCELL_ROW_49_330
*477 TAP_TAPCELL_ROW_50_331
*478 TAP_TAPCELL_ROW_50_332
*479 TAP_TAPCELL_ROW_50_333
*480 TAP_TAPCELL_ROW_50_334
*481 TAP_TAPCELL_ROW_50_335
*482 TAP_TAPCELL_ROW_50_336
*483 TAP_TAPCELL_ROW_50_337
*484 TAP_TAPCELL_ROW_51_338
*485 TAP_TAPCELL_ROW_51_339
*486 TAP_TAPCELL_ROW_51_340
*487 TAP_TAPCELL_ROW_51_341
*488 TAP_TAPCELL_ROW_51_342
*489 TAP_TAPCELL_ROW_51_343
*490 TAP_TAPCELL_ROW_52_344
*491 TAP_TAPCELL_ROW_52_345
*492 TAP_TAPCELL_ROW_52_346
*493 TAP_TAPCELL_ROW_52_347
*494 TAP_TAPCELL_ROW_52_348
*495 TAP_TAPCELL_ROW_52_349
*496 TAP_TAPCELL_ROW_52_350
*497 TAP_TAPCELL_ROW_53_351
*498 TAP_TAPCELL_ROW_53_352
*499 TAP_TAPCELL_ROW_53_353
*500 TAP_TAPCELL_ROW_53_354
*501 TAP_TAPCELL_ROW_53_355
*502 TAP_TAPCELL_ROW_53_356
*503 TAP_TAPCELL_ROW_54_357
*504 TAP_TAPCELL_ROW_54_358
*505 TAP_TAPCELL_ROW_54_359
*506 TAP_TAPCELL_ROW_54_360
*507 TAP_TAPCELL_ROW_54_361
*508 TAP_TAPCELL_ROW_54_362
*509 TAP_TAPCELL_ROW_54_363
*510 TAP_TAPCELL_ROW_55_364
*511 TAP_TAPCELL_ROW_55_365
*512 TAP_TAPCELL_ROW_55_366
*513 TAP_TAPCELL_ROW_55_367
*514 TAP_TAPCELL_ROW_55_368
*515 TAP_TAPCELL_ROW_55_369
*516 TAP_TAPCELL_ROW_56_370
*517 TAP_TAPCELL_ROW_56_371
*518 TAP_TAPCELL_ROW_56_372
*519 TAP_TAPCELL_ROW_56_373
*520 TAP_TAPCELL_ROW_56_374
*521 TAP_TAPCELL_ROW_56_375
*522 TAP_TAPCELL_ROW_56_376
*523 TAP_TAPCELL_ROW_57_377
*524 TAP_TAPCELL_ROW_57_378
*525 TAP_TAPCELL_ROW_57_379
*526 TAP_TAPCELL_ROW_57_380
*527 TAP_TAPCELL_ROW_57_381
*528 TAP_TAPCELL_ROW_57_382
*529 TAP_TAPCELL_ROW_58_383
*530 TAP_TAPCELL_ROW_58_384
*531 TAP_TAPCELL_ROW_58_385
*532 TAP_TAPCELL_ROW_58_386
*533 TAP_TAPCELL_ROW_58_387
*534 TAP_TAPCELL_ROW_58_388
*535 TAP_TAPCELL_ROW_58_389
*536 TAP_TAPCELL_ROW_59_390
*537 TAP_TAPCELL_ROW_59_391
*538 TAP_TAPCELL_ROW_59_392
*539 TAP_TAPCELL_ROW_59_393
*540 TAP_TAPCELL_ROW_59_394
*541 TAP_TAPCELL_ROW_59_395
*542 TAP_TAPCELL_ROW_60_396
*543 TAP_TAPCELL_ROW_60_397
*544 TAP_TAPCELL_ROW_60_398
*545 TAP_TAPCELL_ROW_60_399
*546 TAP_TAPCELL_ROW_60_400
*547 TAP_TAPCELL_ROW_60_401
*548 TAP_TAPCELL_ROW_60_402
*549 TAP_TAPCELL_ROW_61_403
*550 TAP_TAPCELL_ROW_61_404
*551 TAP_TAPCELL_ROW_61_405
*552 TAP_TAPCELL_ROW_61_406
*553 TAP_TAPCELL_ROW_61_407
*554 TAP_TAPCELL_ROW_61_408
*555 TAP_TAPCELL_ROW_62_409
*556 TAP_TAPCELL_ROW_62_410
*557 TAP_TAPCELL_ROW_62_411
*558 TAP_TAPCELL_ROW_62_412
*559 TAP_TAPCELL_ROW_62_413
*560 TAP_TAPCELL_ROW_62_414
*561 TAP_TAPCELL_ROW_62_415
*562 TAP_TAPCELL_ROW_63_416
*563 TAP_TAPCELL_ROW_63_417
*564 TAP_TAPCELL_ROW_63_418
*565 TAP_TAPCELL_ROW_63_419
*566 TAP_TAPCELL_ROW_63_420
*567 TAP_TAPCELL_ROW_63_421
*568 TAP_TAPCELL_ROW_64_422
*569 TAP_TAPCELL_ROW_64_423
*570 TAP_TAPCELL_ROW_64_424
*571 TAP_TAPCELL_ROW_64_425
*572 TAP_TAPCELL_ROW_64_426
*573 TAP_TAPCELL_ROW_64_427
*574 TAP_TAPCELL_ROW_64_428
*575 TAP_TAPCELL_ROW_64_429
*576 TAP_TAPCELL_ROW_64_430
*577 TAP_TAPCELL_ROW_64_431
*578 TAP_TAPCELL_ROW_64_432
*579 TAP_TAPCELL_ROW_64_433
*580 TAP_TAPCELL_ROW_64_434
*581 input1
*582 input2
*583 output3
*584 output4
*585 output5
*586 output6
*587 output7
*588 output8
*589 output9
*590 output10
*591 output11
*592 output12
*593 output13
*594 output14
*595 output15
*596 output16
*597 output17
*598 output18
*599 clkbuf_0_clk
*600 clkbuf_1_0__f_clk
*601 clkbuf_1_1__f_clk
*602 FILLER_0_0
*603 FILLER_0_8
*604 FILLER_0_16
*605 FILLER_0_24
*606 FILLER_0_28
*607 FILLER_0_31
*608 FILLER_0_39
*609 FILLER_0_47
*610 FILLER_0_55
*611 FILLER_0_59
*612 FILLER_0_61
*613 FILLER_0_69
*614 FILLER_0_77
*615 FILLER_0_85
*616 FILLER_0_89
*617 FILLER_0_91
*618 FILLER_0_99
*619 FILLER_0_107
*620 FILLER_0_115
*621 FILLER_0_119
*622 FILLER_0_121
*623 FILLER_0_129
*624 FILLER_0_137
*625 FILLER_0_145
*626 FILLER_0_149
*627 FILLER_0_151
*628 FILLER_0_159
*629 FILLER_0_167
*630 FILLER_0_175
*631 FILLER_0_179
*632 FILLER_0_181
*633 FILLER_0_189
*634 FILLER_0_197
*635 FILLER_0_205
*636 FILLER_0_209
*637 FILLER_0_211
*638 FILLER_0_219
*639 FILLER_0_227
*640 FILLER_0_235
*641 FILLER_0_239
*642 FILLER_0_241
*643 FILLER_0_249
*644 FILLER_0_257
*645 FILLER_0_265
*646 FILLER_0_269
*647 FILLER_0_271
*648 FILLER_0_279
*649 FILLER_0_287
*650 FILLER_0_295
*651 FILLER_0_299
*652 FILLER_0_301
*653 FILLER_0_309
*654 FILLER_0_317
*655 FILLER_0_325
*656 FILLER_0_329
*657 FILLER_0_331
*658 FILLER_0_339
*659 FILLER_0_347
*660 FILLER_0_355
*661 FILLER_0_359
*662 FILLER_0_361
*663 FILLER_0_369
*664 FILLER_0_377
*665 FILLER_0_385
*666 FILLER_0_389
*667 FILLER_1_0
*668 FILLER_1_8
*669 FILLER_1_16
*670 FILLER_1_24
*671 FILLER_1_32
*672 FILLER_1_40
*673 FILLER_1_48
*674 FILLER_1_56
*675 FILLER_1_61
*676 FILLER_1_69
*677 FILLER_1_77
*678 FILLER_1_85
*679 FILLER_1_93
*680 FILLER_1_101
*681 FILLER_1_109
*682 FILLER_1_117
*683 FILLER_1_119
*684 FILLER_1_121
*685 FILLER_1_129
*686 FILLER_1_137
*687 FILLER_1_145
*688 FILLER_1_153
*689 FILLER_1_161
*690 FILLER_1_169
*691 FILLER_1_177
*692 FILLER_1_179
*693 FILLER_1_181
*694 FILLER_1_189
*695 FILLER_1_197
*696 FILLER_1_205
*697 FILLER_1_213
*698 FILLER_1_221
*699 FILLER_1_229
*700 FILLER_1_237
*701 FILLER_1_239
*702 FILLER_1_241
*703 FILLER_1_249
*704 FILLER_1_257
*705 FILLER_1_265
*706 FILLER_1_273
*707 FILLER_1_281
*708 FILLER_1_289
*709 FILLER_1_297
*710 FILLER_1_299
*711 FILLER_1_301
*712 FILLER_1_309
*713 FILLER_1_317
*714 FILLER_1_325
*715 FILLER_1_333
*716 FILLER_1_341
*717 FILLER_1_349
*718 FILLER_1_357
*719 FILLER_1_359
*720 FILLER_1_361
*721 FILLER_1_369
*722 FILLER_1_377
*723 FILLER_1_385
*724 FILLER_1_389
*725 FILLER_2_0
*726 FILLER_2_8
*727 FILLER_2_16
*728 FILLER_2_24
*729 FILLER_2_28
*730 FILLER_2_31
*731 FILLER_2_39
*732 FILLER_2_47
*733 FILLER_2_55
*734 FILLER_2_63
*735 FILLER_2_71
*736 FILLER_2_79
*737 FILLER_2_87
*738 FILLER_2_89
*739 FILLER_2_91
*740 FILLER_2_99
*741 FILLER_2_107
*742 FILLER_2_115
*743 FILLER_2_123
*744 FILLER_2_131
*745 FILLER_2_139
*746 FILLER_2_147
*747 FILLER_2_149
*748 FILLER_2_151
*749 FILLER_2_159
*750 FILLER_2_167
*751 FILLER_2_175
*752 FILLER_2_183
*753 FILLER_2_191
*754 FILLER_2_199
*755 FILLER_2_207
*756 FILLER_2_209
*757 FILLER_2_211
*758 FILLER_2_219
*759 FILLER_2_227
*760 FILLER_2_235
*761 FILLER_2_243
*762 FILLER_2_251
*763 FILLER_2_259
*764 FILLER_2_267
*765 FILLER_2_269
*766 FILLER_2_271
*767 FILLER_2_279
*768 FILLER_2_287
*769 FILLER_2_295
*770 FILLER_2_303
*771 FILLER_2_311
*772 FILLER_2_319
*773 FILLER_2_327
*774 FILLER_2_329
*775 FILLER_2_331
*776 FILLER_2_339
*777 FILLER_2_347
*778 FILLER_2_355
*779 FILLER_2_363
*780 FILLER_2_371
*781 FILLER_2_379
*782 FILLER_2_387
*783 FILLER_2_389
*784 FILLER_3_0
*785 FILLER_3_8
*786 FILLER_3_16
*787 FILLER_3_24
*788 FILLER_3_32
*789 FILLER_3_40
*790 FILLER_3_48
*791 FILLER_3_56
*792 FILLER_3_61
*793 FILLER_3_69
*794 FILLER_3_77
*795 FILLER_3_85
*796 FILLER_3_93
*797 FILLER_3_101
*798 FILLER_3_109
*799 FILLER_3_117
*800 FILLER_3_119
*801 FILLER_3_121
*802 FILLER_3_129
*803 FILLER_3_137
*804 FILLER_3_145
*805 FILLER_3_153
*806 FILLER_3_161
*807 FILLER_3_169
*808 FILLER_3_177
*809 FILLER_3_179
*810 FILLER_3_181
*811 FILLER_3_189
*812 FILLER_3_197
*813 FILLER_3_205
*814 FILLER_3_213
*815 FILLER_3_221
*816 FILLER_3_229
*817 FILLER_3_237
*818 FILLER_3_239
*819 FILLER_3_241
*820 FILLER_3_249
*821 FILLER_3_257
*822 FILLER_3_265
*823 FILLER_3_273
*824 FILLER_3_281
*825 FILLER_3_289
*826 FILLER_3_297
*827 FILLER_3_299
*828 FILLER_3_301
*829 FILLER_3_309
*830 FILLER_3_317
*831 FILLER_3_325
*832 FILLER_3_333
*833 FILLER_3_341
*834 FILLER_3_349
*835 FILLER_3_357
*836 FILLER_3_359
*837 FILLER_3_361
*838 FILLER_3_369
*839 FILLER_3_377
*840 FILLER_3_385
*841 FILLER_3_389
*842 FILLER_4_0
*843 FILLER_4_8
*844 FILLER_4_16
*845 FILLER_4_24
*846 FILLER_4_28
*847 FILLER_4_31
*848 FILLER_4_39
*849 FILLER_4_47
*850 FILLER_4_55
*851 FILLER_4_63
*852 FILLER_4_71
*853 FILLER_4_79
*854 FILLER_4_87
*855 FILLER_4_89
*856 FILLER_4_91
*857 FILLER_4_99
*858 FILLER_4_107
*859 FILLER_4_115
*860 FILLER_4_123
*861 FILLER_4_131
*862 FILLER_4_139
*863 FILLER_4_147
*864 FILLER_4_149
*865 FILLER_4_151
*866 FILLER_4_159
*867 FILLER_4_167
*868 FILLER_4_175
*869 FILLER_4_183
*870 FILLER_4_191
*871 FILLER_4_199
*872 FILLER_4_207
*873 FILLER_4_209
*874 FILLER_4_211
*875 FILLER_4_219
*876 FILLER_4_227
*877 FILLER_4_235
*878 FILLER_4_243
*879 FILLER_4_251
*880 FILLER_4_259
*881 FILLER_4_267
*882 FILLER_4_269
*883 FILLER_4_271
*884 FILLER_4_279
*885 FILLER_4_287
*886 FILLER_4_295
*887 FILLER_4_303
*888 FILLER_4_311
*889 FILLER_4_319
*890 FILLER_4_327
*891 FILLER_4_329
*892 FILLER_4_331
*893 FILLER_4_339
*894 FILLER_4_347
*895 FILLER_4_355
*896 FILLER_4_363
*897 FILLER_4_371
*898 FILLER_4_379
*899 FILLER_4_387
*900 FILLER_4_389
*901 FILLER_5_0
*902 FILLER_5_8
*903 FILLER_5_16
*904 FILLER_5_24
*905 FILLER_5_32
*906 FILLER_5_40
*907 FILLER_5_48
*908 FILLER_5_56
*909 FILLER_5_61
*910 FILLER_5_69
*911 FILLER_5_77
*912 FILLER_5_85
*913 FILLER_5_93
*914 FILLER_5_101
*915 FILLER_5_109
*916 FILLER_5_117
*917 FILLER_5_119
*918 FILLER_5_121
*919 FILLER_5_129
*920 FILLER_5_137
*921 FILLER_5_145
*922 FILLER_5_153
*923 FILLER_5_161
*924 FILLER_5_169
*925 FILLER_5_177
*926 FILLER_5_179
*927 FILLER_5_181
*928 FILLER_5_189
*929 FILLER_5_197
*930 FILLER_5_205
*931 FILLER_5_213
*932 FILLER_5_221
*933 FILLER_5_229
*934 FILLER_5_237
*935 FILLER_5_239
*936 FILLER_5_241
*937 FILLER_5_249
*938 FILLER_5_257
*939 FILLER_5_265
*940 FILLER_5_273
*941 FILLER_5_281
*942 FILLER_5_289
*943 FILLER_5_297
*944 FILLER_5_299
*945 FILLER_5_301
*946 FILLER_5_309
*947 FILLER_5_317
*948 FILLER_5_325
*949 FILLER_5_333
*950 FILLER_5_341
*951 FILLER_5_349
*952 FILLER_5_357
*953 FILLER_5_359
*954 FILLER_5_361
*955 FILLER_5_369
*956 FILLER_5_377
*957 FILLER_5_385
*958 FILLER_5_389
*959 FILLER_6_0
*960 FILLER_6_8
*961 FILLER_6_16
*962 FILLER_6_24
*963 FILLER_6_28
*964 FILLER_6_31
*965 FILLER_6_39
*966 FILLER_6_47
*967 FILLER_6_55
*968 FILLER_6_63
*969 FILLER_6_71
*970 FILLER_6_79
*971 FILLER_6_87
*972 FILLER_6_89
*973 FILLER_6_91
*974 FILLER_6_99
*975 FILLER_6_107
*976 FILLER_6_115
*977 FILLER_6_123
*978 FILLER_6_131
*979 FILLER_6_139
*980 FILLER_6_147
*981 FILLER_6_149
*982 FILLER_6_151
*983 FILLER_6_159
*984 FILLER_6_167
*985 FILLER_6_175
*986 FILLER_6_183
*987 FILLER_6_191
*988 FILLER_6_199
*989 FILLER_6_207
*990 FILLER_6_209
*991 FILLER_6_211
*992 FILLER_6_219
*993 FILLER_6_227
*994 FILLER_6_235
*995 FILLER_6_243
*996 FILLER_6_251
*997 FILLER_6_259
*998 FILLER_6_267
*999 FILLER_6_269
*1000 FILLER_6_271
*1001 FILLER_6_279
*1002 FILLER_6_287
*1003 FILLER_6_295
*1004 FILLER_6_303
*1005 FILLER_6_311
*1006 FILLER_6_319
*1007 FILLER_6_327
*1008 FILLER_6_329
*1009 FILLER_6_331
*1010 FILLER_6_339
*1011 FILLER_6_347
*1012 FILLER_6_355
*1013 FILLER_6_363
*1014 FILLER_6_371
*1015 FILLER_6_379
*1016 FILLER_6_387
*1017 FILLER_6_389
*1018 FILLER_7_0
*1019 FILLER_7_8
*1020 FILLER_7_16
*1021 FILLER_7_24
*1022 FILLER_7_32
*1023 FILLER_7_40
*1024 FILLER_7_48
*1025 FILLER_7_56
*1026 FILLER_7_61
*1027 FILLER_7_69
*1028 FILLER_7_77
*1029 FILLER_7_85
*1030 FILLER_7_93
*1031 FILLER_7_101
*1032 FILLER_7_109
*1033 FILLER_7_117
*1034 FILLER_7_119
*1035 FILLER_7_121
*1036 FILLER_7_129
*1037 FILLER_7_137
*1038 FILLER_7_145
*1039 FILLER_7_153
*1040 FILLER_7_161
*1041 FILLER_7_169
*1042 FILLER_7_177
*1043 FILLER_7_179
*1044 FILLER_7_181
*1045 FILLER_7_189
*1046 FILLER_7_197
*1047 FILLER_7_205
*1048 FILLER_7_213
*1049 FILLER_7_221
*1050 FILLER_7_229
*1051 FILLER_7_237
*1052 FILLER_7_239
*1053 FILLER_7_241
*1054 FILLER_7_249
*1055 FILLER_7_257
*1056 FILLER_7_265
*1057 FILLER_7_273
*1058 FILLER_7_281
*1059 FILLER_7_289
*1060 FILLER_7_297
*1061 FILLER_7_299
*1062 FILLER_7_301
*1063 FILLER_7_309
*1064 FILLER_7_317
*1065 FILLER_7_325
*1066 FILLER_7_333
*1067 FILLER_7_341
*1068 FILLER_7_349
*1069 FILLER_7_357
*1070 FILLER_7_359
*1071 FILLER_7_361
*1072 FILLER_7_369
*1073 FILLER_7_377
*1074 FILLER_7_385
*1075 FILLER_7_389
*1076 FILLER_8_0
*1077 FILLER_8_8
*1078 FILLER_8_16
*1079 FILLER_8_24
*1080 FILLER_8_28
*1081 FILLER_8_31
*1082 FILLER_8_39
*1083 FILLER_8_47
*1084 FILLER_8_55
*1085 FILLER_8_63
*1086 FILLER_8_71
*1087 FILLER_8_79
*1088 FILLER_8_87
*1089 FILLER_8_89
*1090 FILLER_8_91
*1091 FILLER_8_99
*1092 FILLER_8_107
*1093 FILLER_8_115
*1094 FILLER_8_123
*1095 FILLER_8_131
*1096 FILLER_8_139
*1097 FILLER_8_147
*1098 FILLER_8_149
*1099 FILLER_8_151
*1100 FILLER_8_159
*1101 FILLER_8_167
*1102 FILLER_8_175
*1103 FILLER_8_183
*1104 FILLER_8_191
*1105 FILLER_8_199
*1106 FILLER_8_207
*1107 FILLER_8_209
*1108 FILLER_8_211
*1109 FILLER_8_219
*1110 FILLER_8_227
*1111 FILLER_8_235
*1112 FILLER_8_243
*1113 FILLER_8_251
*1114 FILLER_8_259
*1115 FILLER_8_267
*1116 FILLER_8_269
*1117 FILLER_8_271
*1118 FILLER_8_279
*1119 FILLER_8_287
*1120 FILLER_8_295
*1121 FILLER_8_303
*1122 FILLER_8_311
*1123 FILLER_8_319
*1124 FILLER_8_327
*1125 FILLER_8_329
*1126 FILLER_8_331
*1127 FILLER_8_339
*1128 FILLER_8_347
*1129 FILLER_8_355
*1130 FILLER_8_363
*1131 FILLER_8_371
*1132 FILLER_8_379
*1133 FILLER_8_387
*1134 FILLER_8_389
*1135 FILLER_9_0
*1136 FILLER_9_8
*1137 FILLER_9_16
*1138 FILLER_9_24
*1139 FILLER_9_32
*1140 FILLER_9_40
*1141 FILLER_9_48
*1142 FILLER_9_56
*1143 FILLER_9_61
*1144 FILLER_9_69
*1145 FILLER_9_77
*1146 FILLER_9_85
*1147 FILLER_9_93
*1148 FILLER_9_101
*1149 FILLER_9_109
*1150 FILLER_9_117
*1151 FILLER_9_119
*1152 FILLER_9_121
*1153 FILLER_9_129
*1154 FILLER_9_137
*1155 FILLER_9_145
*1156 FILLER_9_153
*1157 FILLER_9_161
*1158 FILLER_9_169
*1159 FILLER_9_177
*1160 FILLER_9_179
*1161 FILLER_9_181
*1162 FILLER_9_189
*1163 FILLER_9_197
*1164 FILLER_9_205
*1165 FILLER_9_213
*1166 FILLER_9_221
*1167 FILLER_9_229
*1168 FILLER_9_237
*1169 FILLER_9_239
*1170 FILLER_9_241
*1171 FILLER_9_249
*1172 FILLER_9_257
*1173 FILLER_9_265
*1174 FILLER_9_273
*1175 FILLER_9_281
*1176 FILLER_9_289
*1177 FILLER_9_297
*1178 FILLER_9_299
*1179 FILLER_9_301
*1180 FILLER_9_309
*1181 FILLER_9_317
*1182 FILLER_9_325
*1183 FILLER_9_333
*1184 FILLER_9_341
*1185 FILLER_9_349
*1186 FILLER_9_357
*1187 FILLER_9_359
*1188 FILLER_9_361
*1189 FILLER_9_369
*1190 FILLER_9_377
*1191 FILLER_9_385
*1192 FILLER_9_389
*1193 FILLER_10_0
*1194 FILLER_10_8
*1195 FILLER_10_16
*1196 FILLER_10_24
*1197 FILLER_10_28
*1198 FILLER_10_31
*1199 FILLER_10_39
*1200 FILLER_10_47
*1201 FILLER_10_55
*1202 FILLER_10_63
*1203 FILLER_10_71
*1204 FILLER_10_79
*1205 FILLER_10_87
*1206 FILLER_10_89
*1207 FILLER_10_91
*1208 FILLER_10_99
*1209 FILLER_10_107
*1210 FILLER_10_115
*1211 FILLER_10_123
*1212 FILLER_10_131
*1213 FILLER_10_139
*1214 FILLER_10_147
*1215 FILLER_10_149
*1216 FILLER_10_151
*1217 FILLER_10_159
*1218 FILLER_10_167
*1219 FILLER_10_175
*1220 FILLER_10_183
*1221 FILLER_10_191
*1222 FILLER_10_199
*1223 FILLER_10_207
*1224 FILLER_10_209
*1225 FILLER_10_211
*1226 FILLER_10_219
*1227 FILLER_10_227
*1228 FILLER_10_235
*1229 FILLER_10_243
*1230 FILLER_10_251
*1231 FILLER_10_259
*1232 FILLER_10_267
*1233 FILLER_10_269
*1234 FILLER_10_271
*1235 FILLER_10_279
*1236 FILLER_10_287
*1237 FILLER_10_295
*1238 FILLER_10_303
*1239 FILLER_10_311
*1240 FILLER_10_319
*1241 FILLER_10_327
*1242 FILLER_10_329
*1243 FILLER_10_331
*1244 FILLER_10_339
*1245 FILLER_10_347
*1246 FILLER_10_355
*1247 FILLER_10_363
*1248 FILLER_10_371
*1249 FILLER_10_379
*1250 FILLER_10_387
*1251 FILLER_10_389
*1252 FILLER_11_0
*1253 FILLER_11_8
*1254 FILLER_11_16
*1255 FILLER_11_24
*1256 FILLER_11_32
*1257 FILLER_11_40
*1258 FILLER_11_48
*1259 FILLER_11_56
*1260 FILLER_11_61
*1261 FILLER_11_69
*1262 FILLER_11_77
*1263 FILLER_11_85
*1264 FILLER_11_93
*1265 FILLER_11_101
*1266 FILLER_11_109
*1267 FILLER_11_117
*1268 FILLER_11_119
*1269 FILLER_11_121
*1270 FILLER_11_129
*1271 FILLER_11_137
*1272 FILLER_11_145
*1273 FILLER_11_153
*1274 FILLER_11_161
*1275 FILLER_11_169
*1276 FILLER_11_177
*1277 FILLER_11_179
*1278 FILLER_11_181
*1279 FILLER_11_189
*1280 FILLER_11_197
*1281 FILLER_11_205
*1282 FILLER_11_213
*1283 FILLER_11_221
*1284 FILLER_11_229
*1285 FILLER_11_237
*1286 FILLER_11_239
*1287 FILLER_11_241
*1288 FILLER_11_249
*1289 FILLER_11_257
*1290 FILLER_11_265
*1291 FILLER_11_273
*1292 FILLER_11_281
*1293 FILLER_11_289
*1294 FILLER_11_297
*1295 FILLER_11_299
*1296 FILLER_11_301
*1297 FILLER_11_309
*1298 FILLER_11_317
*1299 FILLER_11_325
*1300 FILLER_11_333
*1301 FILLER_11_341
*1302 FILLER_11_349
*1303 FILLER_11_357
*1304 FILLER_11_359
*1305 FILLER_11_361
*1306 FILLER_11_369
*1307 FILLER_11_377
*1308 FILLER_11_385
*1309 FILLER_11_389
*1310 FILLER_12_0
*1311 FILLER_12_8
*1312 FILLER_12_16
*1313 FILLER_12_24
*1314 FILLER_12_28
*1315 FILLER_12_31
*1316 FILLER_12_39
*1317 FILLER_12_47
*1318 FILLER_12_55
*1319 FILLER_12_63
*1320 FILLER_12_71
*1321 FILLER_12_79
*1322 FILLER_12_87
*1323 FILLER_12_89
*1324 FILLER_12_91
*1325 FILLER_12_99
*1326 FILLER_12_107
*1327 FILLER_12_115
*1328 FILLER_12_123
*1329 FILLER_12_131
*1330 FILLER_12_139
*1331 FILLER_12_147
*1332 FILLER_12_149
*1333 FILLER_12_151
*1334 FILLER_12_159
*1335 FILLER_12_167
*1336 FILLER_12_175
*1337 FILLER_12_183
*1338 FILLER_12_191
*1339 FILLER_12_199
*1340 FILLER_12_207
*1341 FILLER_12_209
*1342 FILLER_12_211
*1343 FILLER_12_219
*1344 FILLER_12_227
*1345 FILLER_12_235
*1346 FILLER_12_243
*1347 FILLER_12_251
*1348 FILLER_12_259
*1349 FILLER_12_267
*1350 FILLER_12_269
*1351 FILLER_12_271
*1352 FILLER_12_279
*1353 FILLER_12_287
*1354 FILLER_12_295
*1355 FILLER_12_303
*1356 FILLER_12_311
*1357 FILLER_12_319
*1358 FILLER_12_327
*1359 FILLER_12_329
*1360 FILLER_12_331
*1361 FILLER_12_339
*1362 FILLER_12_347
*1363 FILLER_12_355
*1364 FILLER_12_363
*1365 FILLER_12_371
*1366 FILLER_12_379
*1367 FILLER_12_387
*1368 FILLER_12_389
*1369 FILLER_13_0
*1370 FILLER_13_8
*1371 FILLER_13_16
*1372 FILLER_13_24
*1373 FILLER_13_32
*1374 FILLER_13_40
*1375 FILLER_13_48
*1376 FILLER_13_56
*1377 FILLER_13_61
*1378 FILLER_13_69
*1379 FILLER_13_77
*1380 FILLER_13_85
*1381 FILLER_13_93
*1382 FILLER_13_101
*1383 FILLER_13_109
*1384 FILLER_13_117
*1385 FILLER_13_119
*1386 FILLER_13_121
*1387 FILLER_13_129
*1388 FILLER_13_137
*1389 FILLER_13_145
*1390 FILLER_13_153
*1391 FILLER_13_161
*1392 FILLER_13_169
*1393 FILLER_13_177
*1394 FILLER_13_179
*1395 FILLER_13_181
*1396 FILLER_13_189
*1397 FILLER_13_197
*1398 FILLER_13_205
*1399 FILLER_13_213
*1400 FILLER_13_221
*1401 FILLER_13_229
*1402 FILLER_13_237
*1403 FILLER_13_239
*1404 FILLER_13_241
*1405 FILLER_13_249
*1406 FILLER_13_257
*1407 FILLER_13_265
*1408 FILLER_13_273
*1409 FILLER_13_281
*1410 FILLER_13_289
*1411 FILLER_13_297
*1412 FILLER_13_299
*1413 FILLER_13_301
*1414 FILLER_13_309
*1415 FILLER_13_317
*1416 FILLER_13_325
*1417 FILLER_13_333
*1418 FILLER_13_341
*1419 FILLER_13_349
*1420 FILLER_13_357
*1421 FILLER_13_359
*1422 FILLER_13_361
*1423 FILLER_13_369
*1424 FILLER_13_377
*1425 FILLER_13_385
*1426 FILLER_13_389
*1427 FILLER_14_0
*1428 FILLER_14_8
*1429 FILLER_14_16
*1430 FILLER_14_24
*1431 FILLER_14_28
*1432 FILLER_14_31
*1433 FILLER_14_39
*1434 FILLER_14_47
*1435 FILLER_14_55
*1436 FILLER_14_63
*1437 FILLER_14_71
*1438 FILLER_14_79
*1439 FILLER_14_87
*1440 FILLER_14_89
*1441 FILLER_14_91
*1442 FILLER_14_99
*1443 FILLER_14_107